/*--------------------------------*- C++ -*----------------------------------*\
  =========                 |
  \\      /  F ield         | OpenFOAM: The Open Source CFD Toolbox
   \\    /   O peration     | Website:  https://openfoam.org
    \\  /    A nd           | Version:  8
     \\/     M anipulation  |
\*---------------------------------------------------------------------------*/
FoamFile
{
    version         2.0;
    format          ascii;
    class           dictionary;
    object          controlDict;
}

// * * * * * * * * * * * * * * * * * * * * * * * * * * * * * * * * * * * * * //

application     suzenPimple;

startFrom       latestTime;

startTime       0;

stopAt          endTime;

endTime         0.1;

deltaT          1.0e-4;

writeControl    adjustableRunTime;

writeInterval   0.01;

purgeWrite      0;

writeFormat     ascii;

writePrecision  6;

writeCompression off;

timeFormat      general;

timePrecision   6;

graphFormat     raw;

runTimeModifiable yes;

maxCo           5;

functions   
{
#includeFunc  residuals
#includeFunc  yPlus 
#includeFunc  vorticity 
#includeFunc  wallShearStress

	probes
    {
        type            probes;
        libs            ("libsampling.so");
        writeControl    timeStep;
        writeInterval   1;

        fields	(p U k);

        probeLocations
        (
            (0.003 0.0005 -0.005)
        );
	
    }

};

// ************************************************************************* //
