/*--------------------------------*- C++ -*----------------------------------*\
  =========                 |
  \\      /  F ield         | OpenFOAM: The Open Source CFD Toolbox
   \\    /   O peration     | Website:  https://openfoam.org
    \\  /    A nd           | Version:  8
     \\/     M anipulation  |
\*---------------------------------------------------------------------------*/
FoamFile
{
    version     2.0;
    format      ascii;
    class       extendedFeatureEdgeMesh;
    location    "constant/extendedFeatureEdgeMesh";
    object      solidWallnoGap.extendedFeatureEdgeMesh;
}
// * * * * * * * * * * * * * * * * * * * * * * * * * * * * * * * * * * * * * //

// points
8((15 0 0) (15 0 10) (10 0 10) (10 0 0) (-10 0 0) (-10 0 10) (-15 0 10) (-15 0 0))
// edges
8((0 1) (1 2) (2 3) (3 0) (4 5) (5 6) (6 7) (7 4))
// concaveStart mixedStart nonFeatureStart
0 0 8
// internalStart flatStart openStart multipleStart
0 0 0 8
// normals
4{(0 -1 0)}
// normal volume types

4
(
0
0
0
0
)

// normalDirections

8
(
1(1)
1(1)
1(1)
1(1)
1(1)
1(1)
1(1)
1(1)
)

// edgeNormals

8
(
1(0)
1(0)
1(1)
1(1)
1(2)
1(2)
1(3)
1(3)
)

// featurePointNormals

8
(
1(0)
1(0)
1(0)
1(1)
1(2)
1(2)
1(2)
1(3)
)

// featurePointEdges

8
(
2(0 3)
2(0 1)
2(1 2)
2(2 3)
2(4 7)
2(4 5)
2(5 6)
2(6 7)
)

// regionEdges
8(0 1 2 3 4 5 6 7)


// ************************************************************************* //
