/*--------------------------------*- C++ -*----------------------------------*\
  =========                 |
  \\      /  F ield         | OpenFOAM: The Open Source CFD Toolbox
   \\    /   O peration     | Website:  https://openfoam.org
    \\  /    A nd           | Version:  8
     \\/     M anipulation  |
\*---------------------------------------------------------------------------*/

// Field Dictionary

FoamFile
{
    version         2.0;
    format          ascii;
    class           volScalarField;
    object          espR;
}

// * * * * * * * * * * * * * * * * * * * * * * * * * * * * * * * * * * * * * //


dimensions      [0 0 0 0 0 0 0]; 

internalField   uniform 1.0;

boundaryField
{
    exposed        
    {   
        type            zeroGradient; 
    }
    
    wallRhoC      
    {   
        type            fixedValue;
        value           uniform 2.7; //1.45
    }

    front     
    {
        type            empty; 
    }
   
    back 
    {

        type            empty;      
    }

    top
    {
        type            zeroGradient; 
    }
    
    bottom
    {
        type            fixedValue;
        value           uniform 2.7;  
    }
    
    inlet
    {
        type            zeroGradient; 
    }
    
    outlet
    {
        type            zeroGradient; 
    }

}


// ************************************************************************* //
