/*--------------------------------*- C++ -*----------------------------------*\
  =========                 |
  \\      /  F ield         | OpenFOAM: The Open Source CFD Toolbox
   \\    /   O peration     | Website:  https://openfoam.org
    \\  /    A nd           | Version:  8
     \\/     M anipulation  |
\*---------------------------------------------------------------------------*/
FoamFile
{
    version     2.0;
    format      ascii;
    class       extendedFeatureEdgeMesh;
    location    "constant/extendedFeatureEdgeMesh";
    object      exposed.extendedFeatureEdgeMesh;
}
// * * * * * * * * * * * * * * * * * * * * * * * * * * * * * * * * * * * * * //

// points

138
(
(0 0.000999998 0)
(0 0.000999998 10)
(-10 0.000999998 0)
(-10 0.000999998 10)
(-10 0.103 0)
(-10 0.103 10)
(0 0.103 0)
(0 0.103 10)
(0 0.000999998 0.39)
(-0.31 0.000999998 0)
(0 0.000999998 0.89)
(0 0.000999998 1.44)
(0 0.000999998 2.1)
(0 0.000999998 2.94)
(0 0.000999998 3.93)
(0 0.000999998 5.06)
(0 0.000999998 6.08)
(0 0.000999998 6.88)
(0 0.000999998 7.65)
(0 0.000999998 8.3)
(0 0.000999998 8.86)
(0 0.000999998 9.31)
(0 0.000999998 9.69)
(-0.31 0.000999998 10)
(-9.69 0.000999998 0)
(-10 0.000999998 0.33)
(-10 0.000999998 0.76)
(-10 0.000999998 1.27)
(-10 0.000999998 1.84)
(-10 0.000999998 2.53)
(-10 0.000999998 3.29)
(-10 0.000999998 5.04)
(-10 0.000999998 4.1)
(-10 0.000999998 6.04)
(-10 0.000999998 6.87)
(-10 0.000999998 7.65)
(-10 0.000999998 8.29)
(-10 0.000999998 9.33)
(-10 0.000999998 8.86)
(-10 0.000999998 9.69)
(-9.69 0.000999998 10)
(-0.65 0.000999998 0)
(-1.03 0.000999998 0)
(-1.44 0.000999998 0)
(-1.9 0.000999998 0)
(-2.4 0.000999998 0)
(-3.05 0.000999998 0)
(-4.53 0.000999998 0)
(-3.73 0.000999998 0)
(-5.43 0.000999998 0)
(-6.18 0.000999998 0)
(-6.86 0.000999998 0)
(-7.47 0.000999998 0)
(-8.03 0.000999998 0)
(-8.55 0.000999998 0)
(-9.35 0.000999998 0)
(-8.97 0.000999998 0)
(-0.65 0.000999998 10)
(-1.03 0.000999998 10)
(-1.44 0.000999998 10)
(-1.9 0.000999998 10)
(-2.4 0.000999998 10)
(-3.05 0.000999998 10)
(-3.74 0.000999998 10)
(-4.6 0.000999998 10)
(-5.43 0.000999998 10)
(-6.17 0.000999998 10)
(-6.85 0.000999998 10)
(-7.47 0.000999998 10)
(-8.02 0.000999998 10)
(-8.55 0.000999998 10)
(-8.97 0.000999998 10)
(-9.35 0.000999998 10)
(-9.68 0.103 0)
(-10 0.103 0.33)
(-10 0.103 0.76)
(-10 0.103 1.27)
(-10 0.103 1.84)
(-10 0.103 2.53)
(-10 0.103 3.29)
(-10 0.103 4.1)
(-10 0.103 5.04)
(-10 0.103 6.04)
(-10 0.103 6.87)
(-10 0.103 7.65)
(-10 0.103 8.29)
(-10 0.103 8.86)
(-10 0.103 9.33)
(-10 0.103 9.69)
(-9.68 0.103 10)
(0 0.103 0.39)
(-0.3 0.103 0)
(0 0.103 0.89)
(0 0.103 1.44)
(0 0.103 2.1)
(0 0.103 2.94)
(0 0.103 5.06)
(0 0.103 3.93)
(0 0.103 6.08)
(0 0.103 6.88)
(0 0.103 7.65)
(0 0.103 8.3)
(0 0.103 9.31)
(0 0.103 8.86)
(0 0.103 9.69)
(-0.3 0.103 10)
(-9.34 0.103 0)
(-8.96 0.103 0)
(-8.54 0.103 0)
(-8.01 0.103 0)
(-7.45 0.103 0)
(-6.83 0.103 0)
(-5.41 0.103 0)
(-6.15 0.103 0)
(-4.5 0.103 0)
(-3.71 0.103 0)
(-3.02 0.103 0)
(-2.38 0.103 0)
(-1.88 0.103 0)
(-1.43 0.103 0)
(-1.01 0.103 0)
(-0.64 0.103 0)
(-9.34 0.103 10)
(-8.95 0.103 10)
(-8.53 0.103 10)
(-8.01 0.103 10)
(-7.45 0.103 10)
(-6.83 0.103 10)
(-6.15 0.103 10)
(-5.4 0.103 10)
(-4.57 0.103 10)
(-3.72 0.103 10)
(-3.03 0.103 10)
(-2.39 0.103 10)
(-1.88 0.103 10)
(-1.43 0.103 10)
(-1.02 0.103 10)
(-0.64 0.103 10)
)

// edges

142
(
(0 8)
(9 0)
(8 10)
(10 11)
(11 12)
(12 13)
(14 15)
(15 16)
(16 17)
(17 18)
(18 19)
(20 21)
(21 22)
(1 23)
(22 1)
(2 24)
(25 2)
(26 25)
(27 26)
(28 27)
(29 28)
(30 29)
(31 32)
(33 31)
(34 33)
(35 34)
(36 35)
(37 38)
(39 37)
(40 3)
(3 39)
(41 9)
(42 41)
(43 42)
(44 43)
(45 44)
(46 45)
(47 48)
(49 47)
(50 49)
(51 50)
(52 51)
(53 52)
(54 53)
(55 56)
(23 57)
(57 58)
(58 59)
(59 60)
(60 61)
(61 62)
(63 64)
(64 65)
(65 66)
(66 67)
(67 68)
(68 69)
(70 71)
(71 72)
(13 14)
(19 20)
(32 30)
(38 36)
(48 46)
(56 54)
(24 55)
(62 63)
(72 40)
(69 70)
(73 4)
(4 74)
(74 75)
(75 76)
(76 77)
(77 78)
(78 79)
(80 81)
(81 82)
(82 83)
(83 84)
(84 85)
(86 87)
(87 88)
(5 89)
(88 5)
(90 6)
(6 91)
(92 90)
(93 92)
(94 93)
(95 94)
(96 97)
(98 96)
(99 98)
(100 99)
(101 100)
(102 103)
(104 102)
(105 7)
(7 104)
(106 73)
(107 106)
(108 107)
(109 108)
(110 109)
(111 110)
(112 113)
(114 112)
(115 114)
(116 115)
(117 116)
(118 117)
(119 118)
(120 119)
(91 121)
(89 122)
(122 123)
(123 124)
(124 125)
(125 126)
(126 127)
(128 129)
(129 130)
(130 131)
(131 132)
(132 133)
(133 134)
(134 135)
(136 137)
(79 80)
(85 86)
(97 95)
(103 101)
(113 111)
(121 120)
(127 128)
(135 136)
(137 105)
(1 7)
(5 3)
(0 6)
(2 4)
)

// concaveStart mixedStart nonFeatureStart
8 8 8
// internalStart flatStart openStart multipleStart
142 142 142 142
// normals

268
(
(0 -1 0)
(1 -0 0)
(0 0 -1)
(0 -1 0)
(1 0 0)
(0 -1 0)
(1 -0 0)
(0 -1 0)
(1 0 0)
(0 -1 0)
(1 0 0)
(0 -1 0)
(1 0 0)
(0 -1 0)
(1 0 0)
(0 -1 0)
(1 0 0)
(0 -1 0)
(1 0 0)
(0 -1 0)
(1 0 0)
(0 -1 0)
(1 -0 0)
(0 -1 0)
(1 0 0)
(0 -1 0)
(0 0 1)
(1 0 0)
(0 -1 0)
(0 0 -1)
(-1 0 0)
(0 -1 0)
(-1 0 0)
(0 -1 0)
(-1 0 0)
(0 -1 0)
(-1 0 0)
(0 -1 0)
(-1 0 0)
(0 -1 0)
(-1 0 0)
(0 -1 0)
(-1 0 0)
(0 -1 0)
(-1 0 0)
(0 -1 0)
(-1 0 0)
(0 -1 0)
(-1 0 0)
(0 -1 0)
(-1 0 0)
(0 -1 0)
(-1 0 0)
(0 -1 0)
(-1 0 0)
(0 -1 0)
(0 0 1)
(-1 0 0)
(0 -1 0)
(0 0 -1)
(0 -1 0)
(0 0 -1)
(0 -1 0)
(0 0 -1)
(0 -1 0)
(0 0 -1)
(0 -1 0)
(0 0 -1)
(0 -1 0)
(0 0 -1)
(0 -1 0)
(0 0 -1)
(0 -1 0)
(0 0 -1)
(0 -1 0)
(0 0 -1)
(0 -1 0)
(0 0 -1)
(0 -1 0)
(0 0 -1)
(0 -1 0)
(0 0 -1)
(0 -1 0)
(0 0 -1)
(0 -1 0)
(0 0 -1)
(-0 -1 0)
(0 0 1)
(-0 -1 0)
(0 0 1)
(-0 -1 0)
(0 0 1)
(-0 -1 0)
(0 0 1)
(-0 -1 0)
(0 0 1)
(-0 -1 0)
(0 0 1)
(-0 -1 0)
(0 0 1)
(-0 -1 0)
(0 0 1)
(-0 -1 0)
(0 0 1)
(-0 -1 0)
(0 0 1)
(-0 -1 0)
(0 0 1)
(-0 -1 0)
(0 0 1)
(-0 -1 0)
(0 0 1)
(-0 -1 0)
(0 0 1)
(0 -1 -0)
(1 0 0)
(0 -1 0)
(1 0 0)
(0 -1 0)
(-1 0 0)
(0 -1 0)
(-1 0 0)
(0 -1 0)
(0 0 -1)
(0 -1 0)
(0 0 -1)
(0 -1 -0)
(0 0 -1)
(0 -1 0)
(0 0 1)
(0 -1 0)
(0 0 1)
(-0 -1 0)
(0 0 1)
(0 1 0)
(0 0 -1)
(-1 -0 -0)
(0 1 0)
(-1 -0 -0)
(0 1 0)
(-1 0 -0)
(0 1 0)
(-1 0 0)
(0 1 0)
(-1 0 0)
(0 1 0)
(-1 0 -0)
(0 1 0)
(-1 0 -0)
(0 1 0)
(-1 0 -0)
(0 1 0)
(-1 0 0)
(0 1 0)
(-1 0 0)
(0 1 0)
(-1 0 -0)
(0 1 0)
(-1 0 -0)
(0 1 0)
(-1 0 -0)
(0 1 0)
(0 0 1)
(-1 0 -0)
(0 1 0)
(1 0 -0)
(0 0 -1)
(0 1 0)
(1 0 -0)
(0 1 0)
(1 0 -0)
(0 1 0)
(1 0 -0)
(0 1 0)
(1 0 -0)
(0 1 0)
(1 0 -0)
(0 1 0)
(1 0 -0)
(0 1 0)
(1 0 -0)
(0 1 0)
(1 0 -0)
(0 1 0)
(1 0 -0)
(0 1 0)
(1 0 -0)
(0 1 0)
(1 0 -0)
(0 1 0)
(0 0 1)
(1 0 -0)
(0 1 0)
(0 0 -1)
(0 1 0)
(0 0 -1)
(0 1 0)
(0 0 -1)
(0 1 0)
(0 0 -1)
(0 1 0)
(0 0 -1)
(0 1 0)
(0 0 -1)
(0 1 0)
(0 0 -1)
(0 1 0)
(0 0 -1)
(0 1 0)
(0 0 -1)
(0 1 0)
(0 0 -1)
(0 1 0)
(0 0 -1)
(0 1 0)
(0 0 -1)
(0 1 0)
(0 0 -1)
(0 1 0)
(0 0 -1)
(0 1 0)
(0 0 -1)
(-0 1 0)
(0 0 1)
(-0 1 0)
(0 0 1)
(-0 1 0)
(0 0 1)
(-0 1 0)
(0 0 1)
(-0 1 0)
(0 0 1)
(-0 1 0)
(0 0 1)
(-0 1 0)
(0 0 1)
(-0 1 0)
(0 0 1)
(-0 1 0)
(0 -0 1)
(-0 1 0)
(0 0 1)
(-0 1 0)
(0 0 1)
(-0 1 0)
(0 -0 1)
(-0 1 0)
(0 0 1)
(-0 1 0)
(0 0 1)
(0 1 0)
(-1 0 0)
(0 1 0)
(-1 0 -0)
(0 1 0)
(1 0 -0)
(0 1 0)
(1 0 -0)
(0 1 0)
(0 0 -1)
(0 1 0)
(0 0 -1)
(0 1 0)
(0 0 1)
(-0 1 0)
(0 0 1)
(0 1 0)
(0 0 1)
)

// normal volume types

268
(
0
0
0
0
0
0
0
0
0
0
0
0
0
0
0
0
0
0
0
0
0
0
0
0
0
0
0
0
0
0
0
0
0
0
0
0
0
0
0
0
0
0
0
0
0
0
0
0
0
0
0
0
0
0
0
0
0
0
0
0
0
0
0
0
0
0
0
0
0
0
0
0
0
0
0
0
0
0
0
0
0
0
0
0
0
0
0
0
0
0
0
0
0
0
0
0
0
0
0
0
0
0
0
0
0
0
0
0
0
0
0
0
0
0
0
0
0
0
0
0
0
0
0
0
0
0
0
0
0
0
0
0
0
0
0
0
0
0
0
0
0
0
0
0
0
0
0
0
0
0
0
0
0
0
0
0
0
0
0
0
0
0
0
0
0
0
0
0
0
0
0
0
0
0
0
0
0
0
0
0
0
0
0
0
0
0
0
0
0
0
0
0
0
0
0
0
0
0
0
0
0
0
0
0
0
0
0
0
0
0
0
0
0
0
0
0
0
0
0
0
0
0
0
0
0
0
0
0
0
0
0
0
0
0
0
0
0
0
0
0
0
0
0
0
0
0
0
0
0
0
0
0
0
0
0
0
0
0
0
0
0
0
0
0
0
0
0
0
)

// normalDirections

142
(
2(1 -1)
2(1 -1)
2(1 -1)
2(1 -1)
2(1 -1)
2(1 -1)
2(1 -1)
2(1 -1)
2(1 -1)
2(1 -1)
2(1 -1)
2(1 -1)
2(1 -1)
2(1 -1)
2(1 -1)
2(1 -1)
2(1 -1)
2(1 -1)
2(1 -1)
2(1 -1)
2(1 -1)
2(1 -1)
2(1 -1)
2(1 -1)
2(1 -1)
2(1 -1)
2(1 -1)
2(1 -1)
2(1 -1)
2(1 -1)
2(1 -1)
2(1 -1)
2(1 -1)
2(1 -1)
2(1 -1)
2(1 -1)
2(1 -1)
2(1 -1)
2(1 -1)
2(1 -1)
2(1 -1)
2(1 -1)
2(1 -1)
2(1 -1)
2(1 -1)
2(1 -1)
2(1 -1)
2(1 -1)
2(1 -1)
2(1 -1)
2(1 -1)
2(1 -1)
2(1 -1)
2(1 -1)
2(1 -1)
2(1 -1)
2(1 -1)
2(1 -1)
2(1 -1)
2(1 -1)
2(1 -1)
2(1 -1)
2(1 -1)
2(1 -1)
2(1 -1)
2(1 -1)
2(1 -1)
2(1 -1)
2(1 -1)
2(1 -1)
2(1 -1)
2(1 -1)
2(1 -1)
2(1 -1)
2(1 -1)
2(1 -1)
2(1 -1)
2(1 -1)
2(1 -1)
2(1 -1)
2(1 -1)
2(1 -1)
2(1 -1)
2(1 -1)
2(1 -1)
2(1 -1)
2(1 -1)
2(1 -1)
2(1 -1)
2(1 -1)
2(1 -1)
2(1 -1)
2(1 -1)
2(1 -1)
2(1 -1)
2(1 -1)
2(1 -1)
2(1 -1)
2(1 -1)
2(1 -1)
2(1 -1)
2(1 -1)
2(1 -1)
2(1 -1)
2(1 -1)
2(1 -1)
2(1 -1)
2(1 -1)
2(1 -1)
2(1 -1)
2(1 -1)
2(1 -1)
2(1 -1)
2(1 -1)
2(1 -1)
2(1 -1)
2(1 -1)
2(1 -1)
2(1 -1)
2(1 -1)
2(1 -1)
2(1 -1)
2(1 -1)
2(1 -1)
2(1 -1)
2(1 -1)
2(1 -1)
2(1 -1)
2(1 -1)
2(1 -1)
2(1 -1)
2(1 -1)
2(1 -1)
2(1 -1)
2(1 -1)
2(1 -1)
2(1 -1)
2(1 -1)
2(1 -1)
2(1 -1)
2(1 -1)
2(1 -1)
)

// edgeNormals

142
(
2(0 1)
2(0 2)
2(3 4)
2(5 6)
2(7 8)
2(9 10)
2(11 12)
2(13 14)
2(15 16)
2(17 18)
2(19 20)
2(21 22)
2(23 24)
2(25 26)
2(25 27)
2(28 29)
2(28 30)
2(31 32)
2(33 34)
2(35 36)
2(37 38)
2(39 40)
2(41 42)
2(43 44)
2(45 46)
2(47 48)
2(49 50)
2(51 52)
2(53 54)
2(55 56)
2(55 57)
2(58 59)
2(60 61)
2(62 63)
2(64 65)
2(66 67)
2(68 69)
2(70 71)
2(72 73)
2(74 75)
2(76 77)
2(78 79)
2(80 81)
2(82 83)
2(84 85)
2(86 87)
2(88 89)
2(90 91)
2(92 93)
2(94 95)
2(96 97)
2(98 99)
2(100 101)
2(102 103)
2(104 105)
2(106 107)
2(108 109)
2(110 111)
2(112 113)
2(114 115)
2(116 117)
2(118 119)
2(120 121)
2(122 123)
2(124 125)
2(126 127)
2(128 129)
2(130 131)
2(132 133)
2(134 135)
2(134 136)
2(137 138)
2(139 140)
2(141 142)
2(143 144)
2(145 146)
2(147 148)
2(149 150)
2(151 152)
2(153 154)
2(155 156)
2(157 158)
2(159 160)
2(161 162)
2(161 163)
2(164 165)
2(164 166)
2(167 168)
2(169 170)
2(171 172)
2(173 174)
2(175 176)
2(177 178)
2(179 180)
2(181 182)
2(183 184)
2(185 186)
2(187 188)
2(189 190)
2(189 191)
2(192 193)
2(194 195)
2(196 197)
2(198 199)
2(200 201)
2(202 203)
2(204 205)
2(206 207)
2(208 209)
2(210 211)
2(212 213)
2(214 215)
2(216 217)
2(218 219)
2(220 221)
2(222 223)
2(224 225)
2(226 227)
2(228 229)
2(230 231)
2(232 233)
2(234 235)
2(236 237)
2(238 239)
2(240 241)
2(242 243)
2(244 245)
2(246 247)
2(248 249)
2(250 251)
2(252 253)
2(254 255)
2(256 257)
2(258 259)
2(260 261)
2(262 263)
2(264 265)
2(266 267)
2(190 191)
2(56 57)
2(165 166)
2(29 30)
)

// featurePointNormals

8
(
3(0 1 2)
3(25 26 27)
3(28 29 30)
3(55 56 57)
3(134 135 136)
3(161 162 163)
3(164 165 166)
3(189 190 191)
)

// featurePointEdges

8
(
3(0 140 1)
3(13 138 14)
3(15 141 16)
3(29 139 30)
3(69 141 70)
3(83 139 84)
3(85 140 86)
3(98 138 99)
)

// regionEdges
0()


// ************************************************************************* //
