/*--------------------------------*- C++ -*----------------------------------*\
  =========                 |
  \\      /  F ield         | OpenFOAM: The Open Source CFD Toolbox
   \\    /   O peration     | Website:  https://openfoam.org
    \\  /    A nd           | Version:  8
     \\/     M anipulation  |
\*---------------------------------------------------------------------------*/
FoamFile
{
    version     2.0;
    format      ascii;
    class       extendedFeatureEdgeMesh;
    location    "constant/extendedFeatureEdgeMesh";
    object      solidWall.extendedFeatureEdgeMesh;
}
// * * * * * * * * * * * * * * * * * * * * * * * * * * * * * * * * * * * * * //

// points

45
(
(0 0 0)
(0.5 0 0)
(0.5 0 10)
(0 0 10)
(-15 0 0)
(-15 0 10)
(-10 0 0)
(-10 0 10)
(10.5 0 0)
(10.5 0 10)
(15 0 0)
(15 0 10)
(0 0 1.62)
(0.5 0 1.8)
(0.5 0 8.27)
(0 0 3.79)
(0 0 8.21)
(0 0 6.12)
(0.5 0 3.79)
(0.5 0 6.08)
(-15 0 2.27)
(-13.435 0 0)
(-15 0 5.08)
(-15 0 7.9)
(-13.435 0 10)
(-10 0 1.74)
(-11.72 0 0)
(-10 0 3.73)
(-10 0 6.22)
(-10 0 8.32)
(-11.72 0 10)
(10.5 0 1.52)
(11.9445 0 0)
(10.5 0 3.18)
(10.5 0 5.12)
(10.5 0 6.9)
(10.5 0 8.51)
(11.9445 0 10)
(15 0 1.52)
(13.488 0 0)
(15 0 3.18)
(15 0 5.12)
(15 0 6.9)
(15 0 8.51)
(13.488 0 10)
)

// edges

45
(
(12 0)
(0 1)
(1 13)
(14 2)
(2 3)
(15 12)
(16 17)
(3 16)
(13 18)
(19 14)
(18 19)
(17 15)
(20 4)
(4 21)
(22 20)
(5 23)
(24 5)
(6 25)
(26 6)
(25 27)
(28 29)
(29 7)
(7 30)
(30 24)
(23 22)
(27 28)
(21 26)
(31 8)
(8 32)
(33 31)
(34 33)
(35 34)
(36 35)
(9 36)
(37 9)
(10 38)
(39 10)
(38 40)
(40 41)
(41 42)
(43 11)
(11 44)
(32 39)
(44 37)
(42 43)
)

// concaveStart mixedStart nonFeatureStart
0 0 12
// internalStart flatStart openStart multipleStart
0 0 0 45
// normals
35{(0 -1 0)}
// normal volume types

35
(
0
0
0
0
0
0
0
0
0
0
0
0
0
0
0
0
0
0
0
0
0
0
0
0
0
0
0
0
0
0
0
0
0
0
0
)

// normalDirections

45
(
1(1)
1(1)
1(1)
1(1)
1(1)
1(1)
1(1)
1(1)
1(1)
1(1)
1(1)
1(1)
1(1)
1(1)
1(1)
1(1)
1(1)
1(1)
1(1)
1(1)
1(1)
1(1)
1(1)
1(1)
1(1)
1(1)
1(1)
1(1)
1(1)
1(1)
1(1)
1(1)
1(1)
1(1)
1(1)
1(1)
1(1)
1(1)
1(1)
1(1)
1(1)
1(1)
1(1)
1(1)
1(1)
)

// edgeNormals

45
(
1(0)
1(0)
1(1)
1(2)
1(2)
1(3)
1(4)
1(5)
1(6)
1(7)
1(8)
1(9)
1(10)
1(10)
1(11)
1(12)
1(12)
1(13)
1(13)
1(14)
1(15)
1(16)
1(16)
1(17)
1(18)
1(19)
1(20)
1(21)
1(21)
1(22)
1(23)
1(24)
1(25)
1(26)
1(26)
1(27)
1(27)
1(28)
1(29)
1(30)
1(31)
1(31)
1(32)
1(33)
1(34)
)

// featurePointNormals

12
(
1(0)
1(0)
1(2)
1(2)
1(10)
1(12)
1(13)
1(16)
1(21)
1(26)
1(27)
1(31)
)

// featurePointEdges

12
(
2(0 1)
2(1 2)
2(3 4)
2(4 7)
2(12 13)
2(15 16)
2(17 18)
2(21 22)
2(27 28)
2(33 34)
2(35 36)
2(40 41)
)

// regionEdges

45
(
0
1
2
3
4
5
6
7
8
9
10
11
12
13
14
15
16
17
18
19
20
21
22
23
24
25
26
27
28
29
30
31
32
33
34
35
36
37
38
39
40
41
42
43
44
)



// ************************************************************************* //
