/*--------------------------------*- C++ -*----------------------------------*\
  =========                 |
  \\      /  F ield         | OpenFOAM: The Open Source CFD Toolbox
   \\    /   O peration     | Website:  https://openfoam.org
    \\  /    A nd           | Version:  8
     \\/     M anipulation  |
\*---------------------------------------------------------------------------*/
FoamFile
{
    version     2.0;
    format      ascii;
    class       extendedFeatureEdgeMesh;
    location    "constant/extendedFeatureEdgeMesh";
    object      wallRhoCnoGap.extendedFeatureEdgeMesh;
}
// * * * * * * * * * * * * * * * * * * * * * * * * * * * * * * * * * * * * * //

// points

12
(
(10 0 0)
(10 0 10)
(0 0 0)
(0 0 10)
(10 0 3.18)
(6.81 0 0)
(10 0 6.81)
(6.81 0 10)
(0 0 3.17)
(3.33 0 0)
(0 0 6.64)
(3.33 0 10)
)

// edges

12
(
(0 4)
(5 0)
(4 6)
(6 1)
(1 7)
(8 2)
(2 9)
(10 8)
(3 10)
(11 3)
(9 5)
(7 11)
)

// concaveStart mixedStart nonFeatureStart
0 0 4
// internalStart flatStart openStart multipleStart
0 0 0 12
// normals
8{(0 -1 0)}
// normal volume types

8
(
0
0
0
0
0
0
0
0
)

// normalDirections

12
(
1(1)
1(1)
1(1)
1(1)
1(1)
1(1)
1(1)
1(1)
1(1)
1(1)
1(1)
1(1)
)

// edgeNormals

12
(
1(0)
1(0)
1(1)
1(2)
1(2)
1(3)
1(3)
1(4)
1(5)
1(5)
1(6)
1(7)
)

// featurePointNormals

4
(
1(0)
1(2)
1(3)
1(5)
)

// featurePointEdges

4
(
2(0 1)
2(3 4)
2(5 6)
2(8 9)
)

// regionEdges

12
(
0
1
2
3
4
5
6
7
8
9
10
11
)



// ************************************************************************* //
