/*--------------------------------*- C++ -*----------------------------------*\
  =========                 |
  \\      /  F ield         | OpenFOAM: The Open Source CFD Toolbox
   \\    /   O peration     | Website:  https://openfoam.org
    \\  /    A nd           | Version:  8
     \\/     M anipulation  |
\*---------------------------------------------------------------------------*/
FoamFile
{
    version     2.0;
    format      ascii;
    class       extendedFeatureEdgeMesh;
    location    "constant/extendedFeatureEdgeMesh";
    object      wallRhoC.extendedFeatureEdgeMesh;
}
// * * * * * * * * * * * * * * * * * * * * * * * * * * * * * * * * * * * * * //

// points

12
(
(0.5 0 0)
(0.5 0 10)
(10.5 0 0)
(10.5 0 10)
(0.5 0 3.26)
(3.67 0 0)
(0.5 0 6.48)
(3.81 0 10)
(10.5 0 3.21)
(7.13 0 0)
(10.5 0 6.54)
(7.2 0 10)
)

// edges

12
(
(4 0)
(0 5)
(6 4)
(1 6)
(7 1)
(2 8)
(9 2)
(8 10)
(10 3)
(3 11)
(5 9)
(11 7)
)

// concaveStart mixedStart nonFeatureStart
0 0 4
// internalStart flatStart openStart multipleStart
0 0 0 12
// normals
8{(0 -1 0)}
// normal volume types

8
(
0
0
0
0
0
0
0
0
)

// normalDirections

12
(
1(1)
1(1)
1(1)
1(1)
1(1)
1(1)
1(1)
1(1)
1(1)
1(1)
1(1)
1(1)
)

// edgeNormals

12
(
1(0)
1(0)
1(1)
1(2)
1(2)
1(3)
1(3)
1(4)
1(5)
1(5)
1(6)
1(7)
)

// featurePointNormals

4
(
1(0)
1(2)
1(3)
1(5)
)

// featurePointEdges

4
(
2(0 1)
2(3 4)
2(5 6)
2(8 9)
)

// regionEdges

12
(
0
1
2
3
4
5
6
7
8
9
10
11
)



// ************************************************************************* //
