/*--------------------------------*- C++ -*----------------------------------*\
  =========                 |
  \\      /  F ield         | OpenFOAM: The Open Source CFD Toolbox
   \\    /   O peration     | Website:  https://openfoam.org
    \\  /    A nd           | Version:  8
     \\/     M anipulation  |
\*---------------------------------------------------------------------------*/
FoamFile
{
    version     2.0;
    format      ascii;
    class       featureEdgeMesh;
    location    "constant/triSurface";
    object      electrodesNoGap.eMesh;
}
// * * * * * * * * * * * * * * * * * * * * * * * * * * * * * * * * * * * * * //


// points:

274
(
(0 0.000999998 0)
(0 0.000999998 10)
(-10 0.000999998 0)
(-10 0.000999998 10)
(-10 0.103 0)
(-10 0.103 10)
(0 0.103 0)
(0 0.103 10)
(10 -0.127 10)
(10 -0.229 10)
(10 -0.127 0)
(10 -0.229 0)
(0 -0.127 0)
(0 -0.127 10)
(0 -0.229 10)
(0 -0.229 0)
(0 0.000999998 0.39)
(-0.31 0.000999998 0)
(0 0.000999998 0.89)
(0 0.000999998 1.44)
(0 0.000999998 2.1)
(0 0.000999998 2.94)
(0 0.000999998 3.93)
(0 0.000999998 5.06)
(0 0.000999998 6.08)
(0 0.000999998 6.88)
(0 0.000999998 7.65)
(0 0.000999998 8.3)
(0 0.000999998 8.86)
(0 0.000999998 9.31)
(0 0.000999998 9.69)
(-0.31 0.000999998 10)
(-9.69 0.000999998 0)
(-10 0.000999998 0.33)
(-10 0.000999998 0.76)
(-10 0.000999998 1.27)
(-10 0.000999998 1.84)
(-10 0.000999998 2.53)
(-10 0.000999998 3.29)
(-10 0.000999998 5.04)
(-10 0.000999998 4.1)
(-10 0.000999998 6.04)
(-10 0.000999998 6.87)
(-10 0.000999998 7.65)
(-10 0.000999998 8.29)
(-10 0.000999998 9.33)
(-10 0.000999998 8.86)
(-10 0.000999998 9.69)
(-9.69 0.000999998 10)
(-0.65 0.000999998 0)
(-1.03 0.000999998 0)
(-1.44 0.000999998 0)
(-1.9 0.000999998 0)
(-2.4 0.000999998 0)
(-3.05 0.000999998 0)
(-4.53 0.000999998 0)
(-3.73 0.000999998 0)
(-5.43 0.000999998 0)
(-6.18 0.000999998 0)
(-6.86 0.000999998 0)
(-7.47 0.000999998 0)
(-8.03 0.000999998 0)
(-8.55 0.000999998 0)
(-9.35 0.000999998 0)
(-8.97 0.000999998 0)
(-0.65 0.000999998 10)
(-1.03 0.000999998 10)
(-1.44 0.000999998 10)
(-1.9 0.000999998 10)
(-2.4 0.000999998 10)
(-3.05 0.000999998 10)
(-3.74 0.000999998 10)
(-4.6 0.000999998 10)
(-5.43 0.000999998 10)
(-6.17 0.000999998 10)
(-6.85 0.000999998 10)
(-7.47 0.000999998 10)
(-8.02 0.000999998 10)
(-8.55 0.000999998 10)
(-8.97 0.000999998 10)
(-9.35 0.000999998 10)
(-9.68 0.103 0)
(-10 0.103 0.33)
(-10 0.103 0.76)
(-10 0.103 1.27)
(-10 0.103 1.84)
(-10 0.103 2.53)
(-10 0.103 3.29)
(-10 0.103 4.1)
(-10 0.103 5.04)
(-10 0.103 6.04)
(-10 0.103 6.87)
(-10 0.103 7.65)
(-10 0.103 8.29)
(-10 0.103 8.86)
(-10 0.103 9.33)
(-10 0.103 9.69)
(-9.68 0.103 10)
(0 0.103 0.39)
(-0.3 0.103 0)
(0 0.103 0.89)
(0 0.103 1.44)
(0 0.103 2.1)
(0 0.103 2.94)
(0 0.103 5.06)
(0 0.103 3.93)
(0 0.103 6.08)
(0 0.103 6.88)
(0 0.103 7.65)
(0 0.103 8.3)
(0 0.103 9.31)
(0 0.103 8.86)
(0 0.103 9.69)
(-0.3 0.103 10)
(-9.34 0.103 0)
(-8.96 0.103 0)
(-8.54 0.103 0)
(-8.01 0.103 0)
(-7.45 0.103 0)
(-6.83 0.103 0)
(-5.41 0.103 0)
(-6.15 0.103 0)
(-4.5 0.103 0)
(-3.71 0.103 0)
(-3.02 0.103 0)
(-2.38 0.103 0)
(-1.88 0.103 0)
(-1.43 0.103 0)
(-1.01 0.103 0)
(-0.64 0.103 0)
(-9.34 0.103 10)
(-8.95 0.103 10)
(-8.53 0.103 10)
(-8.01 0.103 10)
(-7.45 0.103 10)
(-6.83 0.103 10)
(-6.15 0.103 10)
(-5.4 0.103 10)
(-4.57 0.103 10)
(-3.72 0.103 10)
(-3.03 0.103 10)
(-2.39 0.103 10)
(-1.88 0.103 10)
(-1.43 0.103 10)
(-1.02 0.103 10)
(-0.64 0.103 10)
(10 -0.127 9.36)
(10 -0.127 9.7)
(10 -0.229 9.7)
(10 -0.229 9.36)
(10 -0.127 0.37)
(10 -0.127 8.94)
(10 -0.229 0.37)
(10 -0.229 8.94)
(10 -0.127 0.84)
(10 -0.127 1.36)
(10 -0.127 1.91)
(10 -0.127 8.38)
(10 -0.229 1.91)
(10 -0.229 1.36)
(10 -0.229 0.84)
(10 -0.127 2.53)
(10 -0.127 3.2)
(10 -0.229 3.2)
(10 -0.229 2.53)
(10 -0.127 6.91)
(10 -0.127 7.68)
(10 -0.229 7.68)
(10 -0.229 6.91)
(10 -0.127 4.03)
(10 -0.127 4.97)
(10 -0.229 4.97)
(10 -0.229 4.03)
(10 -0.229 8.38)
(10 -0.127 6.04)
(10 -0.229 6.04)
(0 -0.127 0.37)
(0.32 -0.127 0)
(0 -0.127 0.83)
(0 -0.127 1.35)
(0 -0.127 1.93)
(0 -0.127 2.69)
(0 -0.127 3.64)
(0 -0.127 4.69)
(0 -0.127 5.62)
(0 -0.127 6.41)
(0 -0.127 7.13)
(0 -0.127 7.78)
(0 -0.127 8.37)
(0 -0.127 8.91)
(0 -0.127 9.36)
(0 -0.127 9.71)
(0.33 -0.127 10)
(9.7 -0.127 0)
(9.68 -0.127 10)
(0.66 -0.127 0)
(1.04 -0.127 0)
(1.46 -0.127 0)
(2 -0.127 0)
(2.65 -0.127 0)
(4.54 -0.127 0)
(3.52 -0.127 0)
(5.41 -0.127 0)
(6.23 -0.127 0)
(6.97 -0.127 0)
(8.13 -0.127 0)
(7.63 -0.127 0)
(8.58 -0.127 0)
(8.99 -0.127 0)
(9.36 -0.127 0)
(0.7 -0.127 10)
(1.11 -0.127 10)
(1.56 -0.127 10)
(2.16 -0.127 10)
(2.83 -0.127 10)
(3.57 -0.127 10)
(4.46 -0.127 10)
(5.4 -0.127 10)
(6.16 -0.127 10)
(6.84 -0.127 10)
(7.45 -0.127 10)
(8 -0.127 10)
(8.48 -0.127 10)
(8.92 -0.127 10)
(9.32 -0.127 10)
(9.67 -0.229 10)
(9.31 -0.229 10)
(0.32 -0.229 10)
(0.69 -0.229 10)
(8.91 -0.229 10)
(8.47 -0.229 10)
(1.09 -0.229 10)
(1.54 -0.229 10)
(2.14 -0.229 10)
(7.98 -0.229 10)
(7.44 -0.229 10)
(2.8 -0.229 10)
(3.54 -0.229 10)
(6.82 -0.229 10)
(6.14 -0.229 10)
(4.43 -0.229 10)
(5.38 -0.229 10)
(0 -0.229 9.36)
(0 -0.229 9.71)
(0 -0.229 0.37)
(0 -0.229 0.83)
(0 -0.229 1.35)
(0 -0.229 8.37)
(0 -0.229 8.91)
(0 -0.229 7.13)
(0 -0.229 7.78)
(0 -0.229 1.93)
(0 -0.229 2.69)
(0 -0.229 5.62)
(0 -0.229 6.41)
(0 -0.229 3.64)
(0 -0.229 4.69)
(9.69 -0.229 0)
(0.31 -0.229 0)
(9.35 -0.229 0)
(8.98 -0.229 0)
(8.57 -0.229 0)
(8.11 -0.229 0)
(7.61 -0.229 0)
(6.2 -0.229 0)
(6.94 -0.229 0)
(5.38 -0.229 0)
(4.5 -0.229 0)
(3.49 -0.229 0)
(2.63 -0.229 0)
(1.98 -0.229 0)
(1.44 -0.229 0)
(0.65 -0.229 0)
(1.03 -0.229 0)
)


// edges:

282
(
(0 16)
(17 0)
(16 18)
(18 19)
(19 20)
(20 21)
(22 23)
(23 24)
(24 25)
(25 26)
(26 27)
(28 29)
(29 30)
(1 31)
(30 1)
(2 32)
(33 2)
(34 33)
(35 34)
(36 35)
(37 36)
(38 37)
(39 40)
(41 39)
(42 41)
(43 42)
(44 43)
(45 46)
(47 45)
(48 3)
(3 47)
(49 17)
(50 49)
(51 50)
(52 51)
(53 52)
(54 53)
(55 56)
(57 55)
(58 57)
(59 58)
(60 59)
(61 60)
(62 61)
(63 64)
(31 65)
(65 66)
(66 67)
(67 68)
(68 69)
(69 70)
(71 72)
(72 73)
(73 74)
(74 75)
(75 76)
(76 77)
(78 79)
(79 80)
(21 22)
(27 28)
(40 38)
(46 44)
(56 54)
(64 62)
(32 63)
(70 71)
(80 48)
(77 78)
(81 4)
(4 82)
(82 83)
(83 84)
(84 85)
(85 86)
(86 87)
(88 89)
(89 90)
(90 91)
(91 92)
(92 93)
(94 95)
(95 96)
(5 97)
(96 5)
(98 6)
(6 99)
(100 98)
(101 100)
(102 101)
(103 102)
(104 105)
(106 104)
(107 106)
(108 107)
(109 108)
(110 111)
(112 110)
(113 7)
(7 112)
(114 81)
(115 114)
(116 115)
(117 116)
(118 117)
(119 118)
(120 121)
(122 120)
(123 122)
(124 123)
(125 124)
(126 125)
(127 126)
(128 127)
(99 129)
(97 130)
(130 131)
(131 132)
(132 133)
(133 134)
(134 135)
(136 137)
(137 138)
(138 139)
(139 140)
(140 141)
(141 142)
(142 143)
(144 145)
(87 88)
(93 94)
(105 103)
(111 109)
(121 119)
(129 128)
(135 136)
(143 144)
(145 113)
(1 7)
(5 3)
(0 6)
(2 4)
(146 147)
(147 8)
(8 9)
(148 149)
(9 148)
(10 150)
(11 10)
(151 146)
(152 11)
(149 153)
(154 155)
(155 156)
(157 151)
(158 159)
(159 160)
(161 162)
(163 164)
(150 154)
(165 166)
(167 168)
(160 152)
(156 161)
(162 169)
(169 170)
(171 172)
(164 158)
(166 157)
(173 167)
(153 173)
(174 165)
(168 175)
(170 174)
(172 163)
(175 171)
(12 176)
(177 12)
(176 178)
(178 179)
(179 180)
(180 181)
(182 183)
(183 184)
(184 185)
(185 186)
(186 187)
(187 188)
(189 190)
(190 191)
(13 192)
(191 13)
(10 193)
(194 8)
(195 177)
(196 195)
(197 196)
(198 197)
(199 198)
(200 201)
(202 200)
(203 202)
(204 203)
(205 206)
(207 205)
(208 207)
(209 208)
(192 210)
(210 211)
(211 212)
(212 213)
(213 214)
(215 216)
(216 217)
(217 218)
(218 219)
(219 220)
(221 222)
(222 223)
(223 224)
(224 194)
(181 182)
(188 189)
(201 199)
(206 204)
(193 209)
(214 215)
(220 221)
(225 9)
(226 225)
(13 14)
(14 227)
(227 228)
(229 226)
(230 229)
(231 232)
(228 231)
(232 233)
(234 230)
(235 234)
(233 236)
(236 237)
(238 235)
(239 238)
(237 240)
(241 239)
(240 241)
(242 243)
(243 14)
(15 244)
(12 15)
(245 246)
(247 248)
(249 250)
(248 242)
(244 245)
(251 252)
(253 254)
(246 251)
(252 255)
(250 247)
(254 249)
(256 253)
(255 256)
(257 11)
(15 258)
(259 257)
(260 259)
(261 260)
(262 261)
(263 262)
(264 265)
(266 264)
(267 266)
(268 267)
(269 268)
(270 269)
(271 270)
(272 273)
(258 272)
(265 263)
(273 271)
)

// * * * * * * * * * * * * * * * * * * * * * * * * * * * * * * * * * * * * * //


// ************************************************************************* //
