/*--------------------------------*- C++ -*----------------------------------*\
  =========                 |
  \\      /  F ield         | OpenFOAM: The Open Source CFD Toolbox
   \\    /   O peration     | Website:  https://openfoam.org
    \\  /    A nd           | Version:  8
     \\/     M anipulation  |
\*---------------------------------------------------------------------------*/

FoamFile
{
    version         2.0;
    format          ascii;
    class           dictionary;
    object          fvSolution;
}

// * * * * * * * * * * * * * * * * * * * * * * * * * * * * * * * * * * * * * //

solvers
{
  ElPot
    {
        solver           PCG;
        preconditioner   DIC;
        tolerance        1e-08;
        relTol           0;
    };

  rhoC
    {
        solver           PCG;
        preconditioner   DIC;
        tolerance        1e-08;
        relTol           0;
    };
   
}


// ************************************************************************* //
