/*--------------------------------*- C++ -*----------------------------------*\
  =========                 |
  \\      /  F ield         | OpenFOAM: The Open Source CFD Toolbox
   \\    /   O peration     | Website:  https://openfoam.org
    \\  /    A nd           | Version:  8
     \\/     M anipulation  |
\*---------------------------------------------------------------------------*/
FoamFile
{
    version     2.0;
    format      ascii;
    class       featureEdgeMesh;
    location    "constant/triSurface";
    object      electrodes.eMesh;
}
// * * * * * * * * * * * * * * * * * * * * * * * * * * * * * * * * * * * * * //


// points:

276
(
(0 0.000999998 0)
(0 0.000999998 10)
(-10 0.000999998 0)
(-10 0.000999998 10)
(-10 0.103 0)
(-10 0.103 10)
(0 0.103 0)
(0 0.103 10)
(10.5 -0.229 0)
(10.5 -0.229 10)
(0.5 -0.229 0)
(0.5 -0.229 10)
(0.5 -0.127 0)
(0.5 -0.127 10)
(10.5 -0.127 0)
(10.5 -0.127 10)
(0 0.000999998 0.39)
(-0.31 0.000999998 0)
(0 0.000999998 0.89)
(0 0.000999998 1.44)
(0 0.000999998 2.1)
(0 0.000999998 2.94)
(0 0.000999998 3.93)
(0 0.000999998 5.06)
(0 0.000999998 6.08)
(0 0.000999998 6.88)
(0 0.000999998 7.65)
(0 0.000999998 8.3)
(0 0.000999998 8.86)
(0 0.000999998 9.31)
(0 0.000999998 9.69)
(-0.31 0.000999998 10)
(-9.69 0.000999998 0)
(-10 0.000999998 0.33)
(-10 0.000999998 0.76)
(-10 0.000999998 1.27)
(-10 0.000999998 1.84)
(-10 0.000999998 2.53)
(-10 0.000999998 3.29)
(-10 0.000999998 5.04)
(-10 0.000999998 4.1)
(-10 0.000999998 6.04)
(-10 0.000999998 6.87)
(-10 0.000999998 7.65)
(-10 0.000999998 8.29)
(-10 0.000999998 9.33)
(-10 0.000999998 8.86)
(-10 0.000999998 9.69)
(-9.69 0.000999998 10)
(-0.65 0.000999998 0)
(-1.03 0.000999998 0)
(-1.44 0.000999998 0)
(-1.9 0.000999998 0)
(-2.4 0.000999998 0)
(-3.05 0.000999998 0)
(-4.53 0.000999998 0)
(-3.73 0.000999998 0)
(-5.43 0.000999998 0)
(-6.18 0.000999998 0)
(-6.86 0.000999998 0)
(-7.47 0.000999998 0)
(-8.03 0.000999998 0)
(-8.55 0.000999998 0)
(-9.35 0.000999998 0)
(-8.97 0.000999998 0)
(-0.65 0.000999998 10)
(-1.03 0.000999998 10)
(-1.44 0.000999998 10)
(-1.9 0.000999998 10)
(-2.4 0.000999998 10)
(-3.05 0.000999998 10)
(-3.74 0.000999998 10)
(-4.6 0.000999998 10)
(-5.43 0.000999998 10)
(-6.17 0.000999998 10)
(-6.85 0.000999998 10)
(-7.47 0.000999998 10)
(-8.02 0.000999998 10)
(-8.55 0.000999998 10)
(-8.97 0.000999998 10)
(-9.35 0.000999998 10)
(-9.68 0.103 0)
(-10 0.103 0.33)
(-10 0.103 0.76)
(-10 0.103 1.27)
(-10 0.103 1.84)
(-10 0.103 2.53)
(-10 0.103 3.29)
(-10 0.103 4.1)
(-10 0.103 5.04)
(-10 0.103 6.04)
(-10 0.103 6.87)
(-10 0.103 7.65)
(-10 0.103 8.29)
(-10 0.103 8.86)
(-10 0.103 9.33)
(-10 0.103 9.69)
(-9.68 0.103 10)
(0 0.103 0.39)
(-0.3 0.103 0)
(0 0.103 0.89)
(0 0.103 1.44)
(0 0.103 2.1)
(0 0.103 2.94)
(0 0.103 5.06)
(0 0.103 3.93)
(0 0.103 6.08)
(0 0.103 6.88)
(0 0.103 7.65)
(0 0.103 8.3)
(0 0.103 9.31)
(0 0.103 8.86)
(0 0.103 9.69)
(-0.3 0.103 10)
(-9.34 0.103 0)
(-8.96 0.103 0)
(-8.54 0.103 0)
(-8.01 0.103 0)
(-7.45 0.103 0)
(-6.83 0.103 0)
(-5.41 0.103 0)
(-6.15 0.103 0)
(-4.5 0.103 0)
(-3.71 0.103 0)
(-3.02 0.103 0)
(-2.38 0.103 0)
(-1.88 0.103 0)
(-1.43 0.103 0)
(-1.01 0.103 0)
(-0.64 0.103 0)
(-9.34 0.103 10)
(-8.95 0.103 10)
(-8.53 0.103 10)
(-8.01 0.103 10)
(-7.45 0.103 10)
(-6.83 0.103 10)
(-6.15 0.103 10)
(-5.4 0.103 10)
(-4.57 0.103 10)
(-3.72 0.103 10)
(-3.03 0.103 10)
(-2.39 0.103 10)
(-1.88 0.103 10)
(-1.43 0.103 10)
(-1.02 0.103 10)
(-0.64 0.103 10)
(10.5 -0.229 0.39)
(10.19 -0.229 0)
(10.5 -0.229 0.89)
(10.5 -0.229 1.44)
(10.5 -0.229 2.1)
(10.5 -0.229 2.94)
(10.5 -0.229 3.93)
(10.5 -0.229 5.06)
(10.5 -0.229 6.08)
(10.5 -0.229 6.88)
(10.5 -0.229 7.65)
(10.5 -0.229 8.3)
(10.5 -0.229 8.86)
(10.5 -0.229 9.31)
(10.5 -0.229 9.69)
(10.19 -0.229 10)
(0.81 -0.229 0)
(0.5 -0.229 0.33)
(0.5 -0.229 0.76)
(0.5 -0.229 1.27)
(0.5 -0.229 1.84)
(0.5 -0.229 2.53)
(0.5 -0.229 3.29)
(0.5 -0.229 5.04)
(0.5 -0.229 4.1)
(0.5 -0.229 6.04)
(0.5 -0.229 6.87)
(0.5 -0.229 7.65)
(0.5 -0.229 8.29)
(0.5 -0.229 9.33)
(0.5 -0.229 8.86)
(0.5 -0.229 9.69)
(0.81 -0.229 10)
(9.85 -0.229 0)
(9.47 -0.229 0)
(9.06 -0.229 0)
(8.6 -0.229 0)
(8.1 -0.229 0)
(7.45 -0.229 0)
(5.97 -0.229 0)
(6.77 -0.229 0)
(5.07 -0.229 0)
(4.32 -0.229 0)
(3.64 -0.229 0)
(3.03 -0.229 0)
(2.47 -0.229 0)
(1.95 -0.229 0)
(1.15 -0.229 0)
(1.53 -0.229 0)
(9.85 -0.229 10)
(9.47 -0.229 10)
(9.06 -0.229 10)
(8.6 -0.229 10)
(8.1 -0.229 10)
(7.45 -0.229 10)
(6.76 -0.229 10)
(5.9 -0.229 10)
(5.07 -0.229 10)
(4.33 -0.229 10)
(3.65 -0.229 10)
(3.03 -0.229 10)
(2.48 -0.229 10)
(1.95 -0.229 10)
(1.53 -0.229 10)
(1.15 -0.229 10)
(0.82 -0.127 0)
(0.5 -0.127 0.33)
(0.5 -0.127 0.76)
(0.5 -0.127 1.27)
(0.5 -0.127 1.84)
(0.5 -0.127 2.53)
(0.5 -0.127 3.29)
(0.5 -0.127 4.1)
(0.5 -0.127 5.04)
(0.5 -0.127 6.04)
(0.5 -0.127 6.87)
(0.5 -0.127 7.65)
(0.5 -0.127 8.29)
(0.5 -0.127 8.86)
(0.5 -0.127 9.33)
(0.5 -0.127 9.69)
(0.82 -0.127 10)
(10.5 -0.127 0.39)
(10.2 -0.127 0)
(10.5 -0.127 0.89)
(10.5 -0.127 1.44)
(10.5 -0.127 2.1)
(10.5 -0.127 2.94)
(10.5 -0.127 5.06)
(10.5 -0.127 3.93)
(10.5 -0.127 6.08)
(10.5 -0.127 6.88)
(10.5 -0.127 7.65)
(10.5 -0.127 8.3)
(10.5 -0.127 9.31)
(10.5 -0.127 8.86)
(10.5 -0.127 9.69)
(10.2 -0.127 10)
(1.16 -0.127 0)
(1.54 -0.127 0)
(1.96 -0.127 0)
(2.49 -0.127 0)
(3.05 -0.127 0)
(3.67 -0.127 0)
(5.09 -0.127 0)
(4.35 -0.127 0)
(6 -0.127 0)
(6.79 -0.127 0)
(7.48 -0.127 0)
(8.12 -0.127 0)
(8.62 -0.127 0)
(9.07 -0.127 0)
(9.49 -0.127 0)
(9.86 -0.127 0)
(1.16 -0.127 10)
(1.55 -0.127 10)
(1.97 -0.127 10)
(2.49 -0.127 10)
(3.05 -0.127 10)
(3.67 -0.127 10)
(4.35 -0.127 10)
(5.1 -0.127 10)
(5.93 -0.127 10)
(6.78 -0.127 10)
(7.47 -0.127 10)
(8.11 -0.127 10)
(8.62 -0.127 10)
(9.07 -0.127 10)
(9.48 -0.127 10)
(9.86 -0.127 10)
)


// edges:

284
(
(0 16)
(17 0)
(16 18)
(18 19)
(19 20)
(20 21)
(22 23)
(23 24)
(24 25)
(25 26)
(26 27)
(28 29)
(29 30)
(1 31)
(30 1)
(2 32)
(33 2)
(34 33)
(35 34)
(36 35)
(37 36)
(38 37)
(39 40)
(41 39)
(42 41)
(43 42)
(44 43)
(45 46)
(47 45)
(48 3)
(3 47)
(49 17)
(50 49)
(51 50)
(52 51)
(53 52)
(54 53)
(55 56)
(57 55)
(58 57)
(59 58)
(60 59)
(61 60)
(62 61)
(63 64)
(31 65)
(65 66)
(66 67)
(67 68)
(68 69)
(69 70)
(71 72)
(72 73)
(73 74)
(74 75)
(75 76)
(76 77)
(78 79)
(79 80)
(21 22)
(27 28)
(40 38)
(46 44)
(56 54)
(64 62)
(32 63)
(70 71)
(80 48)
(77 78)
(81 4)
(4 82)
(82 83)
(83 84)
(84 85)
(85 86)
(86 87)
(88 89)
(89 90)
(90 91)
(91 92)
(92 93)
(94 95)
(95 96)
(5 97)
(96 5)
(98 6)
(6 99)
(100 98)
(101 100)
(102 101)
(103 102)
(104 105)
(106 104)
(107 106)
(108 107)
(109 108)
(110 111)
(112 110)
(113 7)
(7 112)
(114 81)
(115 114)
(116 115)
(117 116)
(118 117)
(119 118)
(120 121)
(122 120)
(123 122)
(124 123)
(125 124)
(126 125)
(127 126)
(128 127)
(99 129)
(97 130)
(130 131)
(131 132)
(132 133)
(133 134)
(134 135)
(136 137)
(137 138)
(138 139)
(139 140)
(140 141)
(141 142)
(142 143)
(144 145)
(87 88)
(93 94)
(105 103)
(111 109)
(121 119)
(129 128)
(135 136)
(143 144)
(145 113)
(1 7)
(5 3)
(0 6)
(2 4)
(8 146)
(147 8)
(146 148)
(148 149)
(149 150)
(150 151)
(152 153)
(153 154)
(154 155)
(155 156)
(156 157)
(158 159)
(159 160)
(9 161)
(160 9)
(10 162)
(163 10)
(164 163)
(165 164)
(166 165)
(167 166)
(168 167)
(169 170)
(171 169)
(172 171)
(173 172)
(174 173)
(175 176)
(177 175)
(178 11)
(11 177)
(179 147)
(180 179)
(181 180)
(182 181)
(183 182)
(184 183)
(185 186)
(187 185)
(188 187)
(189 188)
(190 189)
(191 190)
(192 191)
(193 194)
(161 195)
(195 196)
(196 197)
(197 198)
(198 199)
(199 200)
(201 202)
(202 203)
(203 204)
(204 205)
(205 206)
(206 207)
(208 209)
(209 210)
(151 152)
(157 158)
(170 168)
(176 174)
(186 184)
(194 192)
(162 193)
(200 201)
(210 178)
(207 208)
(211 12)
(12 212)
(212 213)
(213 214)
(214 215)
(215 216)
(216 217)
(218 219)
(219 220)
(220 221)
(221 222)
(222 223)
(224 225)
(225 226)
(13 227)
(226 13)
(228 14)
(14 229)
(230 228)
(231 230)
(232 231)
(233 232)
(234 235)
(236 234)
(237 236)
(238 237)
(239 238)
(240 241)
(242 240)
(243 15)
(15 242)
(244 211)
(245 244)
(246 245)
(247 246)
(248 247)
(249 248)
(250 251)
(252 250)
(253 252)
(254 253)
(255 254)
(256 255)
(257 256)
(258 257)
(229 259)
(227 260)
(260 261)
(261 262)
(262 263)
(263 264)
(264 265)
(266 267)
(267 268)
(268 269)
(269 270)
(270 271)
(271 272)
(272 273)
(274 275)
(217 218)
(223 224)
(235 233)
(241 239)
(251 249)
(259 258)
(265 266)
(273 274)
(275 243)
(9 15)
(13 11)
(8 14)
(10 12)
)

// * * * * * * * * * * * * * * * * * * * * * * * * * * * * * * * * * * * * * //


// ************************************************************************* //
