/*--------------------------------*- C++ -*----------------------------------*\
  =========                 |
  \\      /  F ield         | OpenFOAM: The Open Source CFD Toolbox
   \\    /   O peration     | Website:  https://openfoam.org
    \\  /    A nd           | Version:  8
     \\/     M anipulation  |
\*---------------------------------------------------------------------------*/
FoamFile
{
    version     2.0;
    format      ascii;
    class       featureEdgeMesh;
    location    "constant/triSurface";
    object      exposed.eMesh;
}
// * * * * * * * * * * * * * * * * * * * * * * * * * * * * * * * * * * * * * //


// points:

138
(
(0 0.000999998 0)
(0 0.000999998 10)
(-10 0.000999998 0)
(-10 0.000999998 10)
(-10 0.103 0)
(-10 0.103 10)
(0 0.103 0)
(0 0.103 10)
(0 0.000999998 0.39)
(-0.31 0.000999998 0)
(0 0.000999998 0.89)
(0 0.000999998 1.44)
(0 0.000999998 2.1)
(0 0.000999998 2.94)
(0 0.000999998 3.93)
(0 0.000999998 5.06)
(0 0.000999998 6.08)
(0 0.000999998 6.88)
(0 0.000999998 7.65)
(0 0.000999998 8.3)
(0 0.000999998 8.86)
(0 0.000999998 9.31)
(0 0.000999998 9.69)
(-0.31 0.000999998 10)
(-9.69 0.000999998 0)
(-10 0.000999998 0.33)
(-10 0.000999998 0.76)
(-10 0.000999998 1.27)
(-10 0.000999998 1.84)
(-10 0.000999998 2.53)
(-10 0.000999998 3.29)
(-10 0.000999998 5.04)
(-10 0.000999998 4.1)
(-10 0.000999998 6.04)
(-10 0.000999998 6.87)
(-10 0.000999998 7.65)
(-10 0.000999998 8.29)
(-10 0.000999998 9.33)
(-10 0.000999998 8.86)
(-10 0.000999998 9.69)
(-9.69 0.000999998 10)
(-0.65 0.000999998 0)
(-1.03 0.000999998 0)
(-1.44 0.000999998 0)
(-1.9 0.000999998 0)
(-2.4 0.000999998 0)
(-3.05 0.000999998 0)
(-4.53 0.000999998 0)
(-3.73 0.000999998 0)
(-5.43 0.000999998 0)
(-6.18 0.000999998 0)
(-6.86 0.000999998 0)
(-7.47 0.000999998 0)
(-8.03 0.000999998 0)
(-8.55 0.000999998 0)
(-9.35 0.000999998 0)
(-8.97 0.000999998 0)
(-0.65 0.000999998 10)
(-1.03 0.000999998 10)
(-1.44 0.000999998 10)
(-1.9 0.000999998 10)
(-2.4 0.000999998 10)
(-3.05 0.000999998 10)
(-3.74 0.000999998 10)
(-4.6 0.000999998 10)
(-5.43 0.000999998 10)
(-6.17 0.000999998 10)
(-6.85 0.000999998 10)
(-7.47 0.000999998 10)
(-8.02 0.000999998 10)
(-8.55 0.000999998 10)
(-8.97 0.000999998 10)
(-9.35 0.000999998 10)
(-9.68 0.103 0)
(-10 0.103 0.33)
(-10 0.103 0.76)
(-10 0.103 1.27)
(-10 0.103 1.84)
(-10 0.103 2.53)
(-10 0.103 3.29)
(-10 0.103 4.1)
(-10 0.103 5.04)
(-10 0.103 6.04)
(-10 0.103 6.87)
(-10 0.103 7.65)
(-10 0.103 8.29)
(-10 0.103 8.86)
(-10 0.103 9.33)
(-10 0.103 9.69)
(-9.68 0.103 10)
(0 0.103 0.39)
(-0.3 0.103 0)
(0 0.103 0.89)
(0 0.103 1.44)
(0 0.103 2.1)
(0 0.103 2.94)
(0 0.103 5.06)
(0 0.103 3.93)
(0 0.103 6.08)
(0 0.103 6.88)
(0 0.103 7.65)
(0 0.103 8.3)
(0 0.103 9.31)
(0 0.103 8.86)
(0 0.103 9.69)
(-0.3 0.103 10)
(-9.34 0.103 0)
(-8.96 0.103 0)
(-8.54 0.103 0)
(-8.01 0.103 0)
(-7.45 0.103 0)
(-6.83 0.103 0)
(-5.41 0.103 0)
(-6.15 0.103 0)
(-4.5 0.103 0)
(-3.71 0.103 0)
(-3.02 0.103 0)
(-2.38 0.103 0)
(-1.88 0.103 0)
(-1.43 0.103 0)
(-1.01 0.103 0)
(-0.64 0.103 0)
(-9.34 0.103 10)
(-8.95 0.103 10)
(-8.53 0.103 10)
(-8.01 0.103 10)
(-7.45 0.103 10)
(-6.83 0.103 10)
(-6.15 0.103 10)
(-5.4 0.103 10)
(-4.57 0.103 10)
(-3.72 0.103 10)
(-3.03 0.103 10)
(-2.39 0.103 10)
(-1.88 0.103 10)
(-1.43 0.103 10)
(-1.02 0.103 10)
(-0.64 0.103 10)
)


// edges:

142
(
(0 8)
(9 0)
(8 10)
(10 11)
(11 12)
(12 13)
(14 15)
(15 16)
(16 17)
(17 18)
(18 19)
(20 21)
(21 22)
(1 23)
(22 1)
(2 24)
(25 2)
(26 25)
(27 26)
(28 27)
(29 28)
(30 29)
(31 32)
(33 31)
(34 33)
(35 34)
(36 35)
(37 38)
(39 37)
(40 3)
(3 39)
(41 9)
(42 41)
(43 42)
(44 43)
(45 44)
(46 45)
(47 48)
(49 47)
(50 49)
(51 50)
(52 51)
(53 52)
(54 53)
(55 56)
(23 57)
(57 58)
(58 59)
(59 60)
(60 61)
(61 62)
(63 64)
(64 65)
(65 66)
(66 67)
(67 68)
(68 69)
(70 71)
(71 72)
(13 14)
(19 20)
(32 30)
(38 36)
(48 46)
(56 54)
(24 55)
(62 63)
(72 40)
(69 70)
(73 4)
(4 74)
(74 75)
(75 76)
(76 77)
(77 78)
(78 79)
(80 81)
(81 82)
(82 83)
(83 84)
(84 85)
(86 87)
(87 88)
(5 89)
(88 5)
(90 6)
(6 91)
(92 90)
(93 92)
(94 93)
(95 94)
(96 97)
(98 96)
(99 98)
(100 99)
(101 100)
(102 103)
(104 102)
(105 7)
(7 104)
(106 73)
(107 106)
(108 107)
(109 108)
(110 109)
(111 110)
(112 113)
(114 112)
(115 114)
(116 115)
(117 116)
(118 117)
(119 118)
(120 119)
(91 121)
(89 122)
(122 123)
(123 124)
(124 125)
(125 126)
(126 127)
(128 129)
(129 130)
(130 131)
(131 132)
(132 133)
(133 134)
(134 135)
(136 137)
(79 80)
(85 86)
(97 95)
(103 101)
(113 111)
(121 120)
(127 128)
(135 136)
(137 105)
(1 7)
(5 3)
(0 6)
(2 4)
)

// * * * * * * * * * * * * * * * * * * * * * * * * * * * * * * * * * * * * * //


// ************************************************************************* //
