/*--------------------------------*- C++ -*----------------------------------*\
  =========                 |
  \\      /  F ield         | OpenFOAM: The Open Source CFD Toolbox
   \\    /   O peration     | Website:  https://openfoam.org
    \\  /    A nd           | Version:  8
     \\/     M anipulation  |
\*---------------------------------------------------------------------------*/
FoamFile
{
    version     2.0;
    format      ascii;
    class       extendedFeatureEdgeMesh;
    location    "constant/extendedFeatureEdgeMesh";
    object      electrodesNoGap.extendedFeatureEdgeMesh;
}
// * * * * * * * * * * * * * * * * * * * * * * * * * * * * * * * * * * * * * //

// points

274
(
(0 0.000999998 0)
(0 0.000999998 10)
(-10 0.000999998 0)
(-10 0.000999998 10)
(-10 0.103 0)
(-10 0.103 10)
(0 0.103 0)
(0 0.103 10)
(10 -0.127 10)
(10 -0.229 10)
(10 -0.127 0)
(10 -0.229 0)
(0 -0.127 0)
(0 -0.127 10)
(0 -0.229 10)
(0 -0.229 0)
(0 0.000999998 0.39)
(-0.31 0.000999998 0)
(0 0.000999998 0.89)
(0 0.000999998 1.44)
(0 0.000999998 2.1)
(0 0.000999998 2.94)
(0 0.000999998 3.93)
(0 0.000999998 5.06)
(0 0.000999998 6.08)
(0 0.000999998 6.88)
(0 0.000999998 7.65)
(0 0.000999998 8.3)
(0 0.000999998 8.86)
(0 0.000999998 9.31)
(0 0.000999998 9.69)
(-0.31 0.000999998 10)
(-9.69 0.000999998 0)
(-10 0.000999998 0.33)
(-10 0.000999998 0.76)
(-10 0.000999998 1.27)
(-10 0.000999998 1.84)
(-10 0.000999998 2.53)
(-10 0.000999998 3.29)
(-10 0.000999998 5.04)
(-10 0.000999998 4.1)
(-10 0.000999998 6.04)
(-10 0.000999998 6.87)
(-10 0.000999998 7.65)
(-10 0.000999998 8.29)
(-10 0.000999998 9.33)
(-10 0.000999998 8.86)
(-10 0.000999998 9.69)
(-9.69 0.000999998 10)
(-0.65 0.000999998 0)
(-1.03 0.000999998 0)
(-1.44 0.000999998 0)
(-1.9 0.000999998 0)
(-2.4 0.000999998 0)
(-3.05 0.000999998 0)
(-4.53 0.000999998 0)
(-3.73 0.000999998 0)
(-5.43 0.000999998 0)
(-6.18 0.000999998 0)
(-6.86 0.000999998 0)
(-7.47 0.000999998 0)
(-8.03 0.000999998 0)
(-8.55 0.000999998 0)
(-9.35 0.000999998 0)
(-8.97 0.000999998 0)
(-0.65 0.000999998 10)
(-1.03 0.000999998 10)
(-1.44 0.000999998 10)
(-1.9 0.000999998 10)
(-2.4 0.000999998 10)
(-3.05 0.000999998 10)
(-3.74 0.000999998 10)
(-4.6 0.000999998 10)
(-5.43 0.000999998 10)
(-6.17 0.000999998 10)
(-6.85 0.000999998 10)
(-7.47 0.000999998 10)
(-8.02 0.000999998 10)
(-8.55 0.000999998 10)
(-8.97 0.000999998 10)
(-9.35 0.000999998 10)
(-9.68 0.103 0)
(-10 0.103 0.33)
(-10 0.103 0.76)
(-10 0.103 1.27)
(-10 0.103 1.84)
(-10 0.103 2.53)
(-10 0.103 3.29)
(-10 0.103 4.1)
(-10 0.103 5.04)
(-10 0.103 6.04)
(-10 0.103 6.87)
(-10 0.103 7.65)
(-10 0.103 8.29)
(-10 0.103 8.86)
(-10 0.103 9.33)
(-10 0.103 9.69)
(-9.68 0.103 10)
(0 0.103 0.39)
(-0.3 0.103 0)
(0 0.103 0.89)
(0 0.103 1.44)
(0 0.103 2.1)
(0 0.103 2.94)
(0 0.103 5.06)
(0 0.103 3.93)
(0 0.103 6.08)
(0 0.103 6.88)
(0 0.103 7.65)
(0 0.103 8.3)
(0 0.103 9.31)
(0 0.103 8.86)
(0 0.103 9.69)
(-0.3 0.103 10)
(-9.34 0.103 0)
(-8.96 0.103 0)
(-8.54 0.103 0)
(-8.01 0.103 0)
(-7.45 0.103 0)
(-6.83 0.103 0)
(-5.41 0.103 0)
(-6.15 0.103 0)
(-4.5 0.103 0)
(-3.71 0.103 0)
(-3.02 0.103 0)
(-2.38 0.103 0)
(-1.88 0.103 0)
(-1.43 0.103 0)
(-1.01 0.103 0)
(-0.64 0.103 0)
(-9.34 0.103 10)
(-8.95 0.103 10)
(-8.53 0.103 10)
(-8.01 0.103 10)
(-7.45 0.103 10)
(-6.83 0.103 10)
(-6.15 0.103 10)
(-5.4 0.103 10)
(-4.57 0.103 10)
(-3.72 0.103 10)
(-3.03 0.103 10)
(-2.39 0.103 10)
(-1.88 0.103 10)
(-1.43 0.103 10)
(-1.02 0.103 10)
(-0.64 0.103 10)
(10 -0.127 9.36)
(10 -0.127 9.7)
(10 -0.229 9.7)
(10 -0.229 9.36)
(10 -0.127 0.37)
(10 -0.127 8.94)
(10 -0.229 0.37)
(10 -0.229 8.94)
(10 -0.127 0.84)
(10 -0.127 1.36)
(10 -0.127 1.91)
(10 -0.127 8.38)
(10 -0.229 1.91)
(10 -0.229 1.36)
(10 -0.229 0.84)
(10 -0.127 2.53)
(10 -0.127 3.2)
(10 -0.229 3.2)
(10 -0.229 2.53)
(10 -0.127 6.91)
(10 -0.127 7.68)
(10 -0.229 7.68)
(10 -0.229 6.91)
(10 -0.127 4.03)
(10 -0.127 4.97)
(10 -0.229 4.97)
(10 -0.229 4.03)
(10 -0.229 8.38)
(10 -0.127 6.04)
(10 -0.229 6.04)
(0 -0.127 0.37)
(0.32 -0.127 0)
(0 -0.127 0.83)
(0 -0.127 1.35)
(0 -0.127 1.93)
(0 -0.127 2.69)
(0 -0.127 3.64)
(0 -0.127 4.69)
(0 -0.127 5.62)
(0 -0.127 6.41)
(0 -0.127 7.13)
(0 -0.127 7.78)
(0 -0.127 8.37)
(0 -0.127 8.91)
(0 -0.127 9.36)
(0 -0.127 9.71)
(0.33 -0.127 10)
(9.7 -0.127 0)
(9.68 -0.127 10)
(0.66 -0.127 0)
(1.04 -0.127 0)
(1.46 -0.127 0)
(2 -0.127 0)
(2.65 -0.127 0)
(4.54 -0.127 0)
(3.52 -0.127 0)
(5.41 -0.127 0)
(6.23 -0.127 0)
(6.97 -0.127 0)
(8.13 -0.127 0)
(7.63 -0.127 0)
(8.58 -0.127 0)
(8.99 -0.127 0)
(9.36 -0.127 0)
(0.7 -0.127 10)
(1.11 -0.127 10)
(1.56 -0.127 10)
(2.16 -0.127 10)
(2.83 -0.127 10)
(3.57 -0.127 10)
(4.46 -0.127 10)
(5.4 -0.127 10)
(6.16 -0.127 10)
(6.84 -0.127 10)
(7.45 -0.127 10)
(8 -0.127 10)
(8.48 -0.127 10)
(8.92 -0.127 10)
(9.32 -0.127 10)
(9.67 -0.229 10)
(9.31 -0.229 10)
(0.32 -0.229 10)
(0.69 -0.229 10)
(8.91 -0.229 10)
(8.47 -0.229 10)
(1.09 -0.229 10)
(1.54 -0.229 10)
(2.14 -0.229 10)
(7.98 -0.229 10)
(7.44 -0.229 10)
(2.8 -0.229 10)
(3.54 -0.229 10)
(6.82 -0.229 10)
(6.14 -0.229 10)
(4.43 -0.229 10)
(5.38 -0.229 10)
(0 -0.229 9.36)
(0 -0.229 9.71)
(0 -0.229 0.37)
(0 -0.229 0.83)
(0 -0.229 1.35)
(0 -0.229 8.37)
(0 -0.229 8.91)
(0 -0.229 7.13)
(0 -0.229 7.78)
(0 -0.229 1.93)
(0 -0.229 2.69)
(0 -0.229 5.62)
(0 -0.229 6.41)
(0 -0.229 3.64)
(0 -0.229 4.69)
(9.69 -0.229 0)
(0.31 -0.229 0)
(9.35 -0.229 0)
(8.98 -0.229 0)
(8.57 -0.229 0)
(8.11 -0.229 0)
(7.61 -0.229 0)
(6.2 -0.229 0)
(6.94 -0.229 0)
(5.38 -0.229 0)
(4.5 -0.229 0)
(3.49 -0.229 0)
(2.63 -0.229 0)
(1.98 -0.229 0)
(1.44 -0.229 0)
(0.65 -0.229 0)
(1.03 -0.229 0)
)

// edges

282
(
(0 16)
(17 0)
(16 18)
(18 19)
(19 20)
(20 21)
(22 23)
(23 24)
(24 25)
(25 26)
(26 27)
(28 29)
(29 30)
(1 31)
(30 1)
(2 32)
(33 2)
(34 33)
(35 34)
(36 35)
(37 36)
(38 37)
(39 40)
(41 39)
(42 41)
(43 42)
(44 43)
(45 46)
(47 45)
(48 3)
(3 47)
(49 17)
(50 49)
(51 50)
(52 51)
(53 52)
(54 53)
(55 56)
(57 55)
(58 57)
(59 58)
(60 59)
(61 60)
(62 61)
(63 64)
(31 65)
(65 66)
(66 67)
(67 68)
(68 69)
(69 70)
(71 72)
(72 73)
(73 74)
(74 75)
(75 76)
(76 77)
(78 79)
(79 80)
(21 22)
(27 28)
(40 38)
(46 44)
(56 54)
(64 62)
(32 63)
(70 71)
(80 48)
(77 78)
(81 4)
(4 82)
(82 83)
(83 84)
(84 85)
(85 86)
(86 87)
(88 89)
(89 90)
(90 91)
(91 92)
(92 93)
(94 95)
(95 96)
(5 97)
(96 5)
(98 6)
(6 99)
(100 98)
(101 100)
(102 101)
(103 102)
(104 105)
(106 104)
(107 106)
(108 107)
(109 108)
(110 111)
(112 110)
(113 7)
(7 112)
(114 81)
(115 114)
(116 115)
(117 116)
(118 117)
(119 118)
(120 121)
(122 120)
(123 122)
(124 123)
(125 124)
(126 125)
(127 126)
(128 127)
(99 129)
(97 130)
(130 131)
(131 132)
(132 133)
(133 134)
(134 135)
(136 137)
(137 138)
(138 139)
(139 140)
(140 141)
(141 142)
(142 143)
(144 145)
(87 88)
(93 94)
(105 103)
(111 109)
(121 119)
(129 128)
(135 136)
(143 144)
(145 113)
(1 7)
(5 3)
(0 6)
(2 4)
(146 147)
(147 8)
(8 9)
(148 149)
(9 148)
(10 150)
(11 10)
(151 146)
(152 11)
(149 153)
(154 155)
(155 156)
(157 151)
(158 159)
(159 160)
(161 162)
(163 164)
(150 154)
(165 166)
(167 168)
(160 152)
(156 161)
(162 169)
(169 170)
(171 172)
(164 158)
(166 157)
(173 167)
(153 173)
(174 165)
(168 175)
(170 174)
(172 163)
(175 171)
(12 176)
(177 12)
(176 178)
(178 179)
(179 180)
(180 181)
(182 183)
(183 184)
(184 185)
(185 186)
(186 187)
(187 188)
(189 190)
(190 191)
(13 192)
(191 13)
(10 193)
(194 8)
(195 177)
(196 195)
(197 196)
(198 197)
(199 198)
(200 201)
(202 200)
(203 202)
(204 203)
(205 206)
(207 205)
(208 207)
(209 208)
(192 210)
(210 211)
(211 212)
(212 213)
(213 214)
(215 216)
(216 217)
(217 218)
(218 219)
(219 220)
(221 222)
(222 223)
(223 224)
(224 194)
(181 182)
(188 189)
(201 199)
(206 204)
(193 209)
(214 215)
(220 221)
(225 9)
(226 225)
(13 14)
(14 227)
(227 228)
(229 226)
(230 229)
(231 232)
(228 231)
(232 233)
(234 230)
(235 234)
(233 236)
(236 237)
(238 235)
(239 238)
(237 240)
(241 239)
(240 241)
(242 243)
(243 14)
(15 244)
(12 15)
(245 246)
(247 248)
(249 250)
(248 242)
(244 245)
(251 252)
(253 254)
(246 251)
(252 255)
(250 247)
(254 249)
(256 253)
(255 256)
(257 11)
(15 258)
(259 257)
(260 259)
(261 260)
(262 261)
(263 262)
(264 265)
(266 264)
(267 266)
(268 267)
(269 268)
(270 269)
(271 270)
(272 273)
(258 272)
(265 263)
(273 271)
)

// concaveStart mixedStart nonFeatureStart
16 16 16
// internalStart flatStart openStart multipleStart
282 282 282 282
// normals

532
(
(0 -1 0)
(1 -0 0)
(0 0 -1)
(0 -1 0)
(1 0 0)
(0 -1 0)
(1 -0 0)
(0 -1 0)
(1 0 0)
(0 -1 0)
(1 0 0)
(0 -1 0)
(1 0 0)
(0 -1 0)
(1 0 0)
(0 -1 0)
(1 0 0)
(0 -1 0)
(1 0 0)
(0 -1 0)
(1 0 0)
(0 -1 0)
(1 -0 0)
(0 -1 0)
(1 0 0)
(0 -1 0)
(0 0 1)
(1 0 0)
(0 -1 0)
(0 0 -1)
(-1 0 0)
(0 -1 0)
(-1 0 0)
(0 -1 0)
(-1 0 0)
(0 -1 0)
(-1 0 0)
(0 -1 0)
(-1 0 0)
(0 -1 0)
(-1 0 0)
(0 -1 0)
(-1 0 0)
(0 -1 0)
(-1 0 0)
(0 -1 0)
(-1 0 0)
(0 -1 0)
(-1 0 0)
(0 -1 0)
(-1 0 0)
(0 -1 0)
(-1 0 0)
(0 -1 0)
(-1 0 0)
(0 -1 0)
(0 0 1)
(-1 0 0)
(0 -1 0)
(0 0 -1)
(0 -1 0)
(0 0 -1)
(0 -1 0)
(0 0 -1)
(0 -1 0)
(0 0 -1)
(0 -1 0)
(0 0 -1)
(0 -1 0)
(0 0 -1)
(0 -1 0)
(0 0 -1)
(0 -1 0)
(0 0 -1)
(0 -1 0)
(0 0 -1)
(0 -1 0)
(0 0 -1)
(0 -1 0)
(0 0 -1)
(0 -1 0)
(0 0 -1)
(0 -1 0)
(0 0 -1)
(0 -1 0)
(0 0 -1)
(-0 -1 0)
(0 0 1)
(-0 -1 0)
(0 0 1)
(-0 -1 0)
(0 0 1)
(-0 -1 0)
(0 0 1)
(-0 -1 0)
(0 0 1)
(-0 -1 0)
(0 0 1)
(-0 -1 0)
(0 0 1)
(-0 -1 0)
(0 0 1)
(-0 -1 0)
(0 0 1)
(-0 -1 0)
(0 0 1)
(-0 -1 0)
(0 0 1)
(-0 -1 0)
(0 0 1)
(-0 -1 0)
(0 0 1)
(-0 -1 0)
(0 0 1)
(0 -1 -0)
(1 0 0)
(0 -1 0)
(1 0 0)
(0 -1 0)
(-1 0 0)
(0 -1 0)
(-1 0 0)
(0 -1 0)
(0 0 -1)
(0 -1 0)
(0 0 -1)
(0 -1 -0)
(0 0 -1)
(0 -1 0)
(0 0 1)
(0 -1 0)
(0 0 1)
(-0 -1 0)
(0 0 1)
(0 1 0)
(0 0 -1)
(-1 -0 -0)
(0 1 0)
(-1 -0 -0)
(0 1 0)
(-1 0 -0)
(0 1 0)
(-1 0 0)
(0 1 0)
(-1 0 0)
(0 1 0)
(-1 0 -0)
(0 1 0)
(-1 0 -0)
(0 1 0)
(-1 0 -0)
(0 1 0)
(-1 0 0)
(0 1 0)
(-1 0 0)
(0 1 0)
(-1 0 -0)
(0 1 0)
(-1 0 -0)
(0 1 0)
(-1 0 -0)
(0 1 0)
(0 0 1)
(-1 0 -0)
(0 1 0)
(1 0 -0)
(0 0 -1)
(0 1 0)
(1 0 -0)
(0 1 0)
(1 0 -0)
(0 1 0)
(1 0 -0)
(0 1 0)
(1 0 -0)
(0 1 0)
(1 0 -0)
(0 1 0)
(1 0 -0)
(0 1 0)
(1 0 -0)
(0 1 0)
(1 0 -0)
(0 1 0)
(1 0 -0)
(0 1 0)
(1 0 -0)
(0 1 0)
(1 0 -0)
(0 1 0)
(0 0 1)
(1 0 -0)
(0 1 0)
(0 0 -1)
(0 1 0)
(0 0 -1)
(0 1 0)
(0 0 -1)
(0 1 0)
(0 0 -1)
(0 1 0)
(0 0 -1)
(0 1 0)
(0 0 -1)
(0 1 0)
(0 0 -1)
(0 1 0)
(0 0 -1)
(0 1 0)
(0 0 -1)
(0 1 0)
(0 0 -1)
(0 1 0)
(0 0 -1)
(0 1 0)
(0 0 -1)
(0 1 0)
(0 0 -1)
(0 1 0)
(0 0 -1)
(0 1 0)
(0 0 -1)
(-0 1 0)
(0 0 1)
(-0 1 0)
(0 0 1)
(-0 1 0)
(0 0 1)
(-0 1 0)
(0 0 1)
(-0 1 0)
(0 0 1)
(-0 1 0)
(0 0 1)
(-0 1 0)
(0 0 1)
(-0 1 0)
(0 0 1)
(-0 1 0)
(0 -0 1)
(-0 1 0)
(0 0 1)
(-0 1 0)
(0 0 1)
(-0 1 0)
(0 -0 1)
(-0 1 0)
(0 0 1)
(-0 1 0)
(0 0 1)
(0 1 0)
(-1 0 0)
(0 1 0)
(-1 0 -0)
(0 1 0)
(1 0 -0)
(0 1 0)
(1 0 -0)
(0 1 0)
(0 0 -1)
(0 1 0)
(0 0 -1)
(0 1 0)
(0 0 1)
(-0 1 0)
(0 0 1)
(0 1 0)
(0 0 1)
(1 0 -0)
(0 1 0)
(1 0 -0)
(0 1 0)
(0 0 1)
(1 -0 0)
(0 -1 0)
(1 0 0)
(0 -1 0)
(1 0 -0)
(0 1 0)
(0 0 -1)
(1 0 -0)
(0 1 0)
(1 0 0)
(0 -1 0)
(1 0 0)
(0 -1 0)
(1 0 -0)
(0 1 0)
(1 0 -0)
(0 1 0)
(1 0 -0)
(0 1 0)
(1 0 0)
(0 -1 0)
(1 0 0)
(0 -1 0)
(1 0 -0)
(0 1 0)
(1 -0 0)
(0 -1 0)
(1 0 -0)
(0 1 0)
(1 0 -0)
(0 1 0)
(1 0 0)
(0 -1 0)
(1 0 0)
(0 -1 0)
(1 0 -0)
(0 1 0)
(1 0 -0)
(0 1 0)
(1 0 -0)
(0 1 0)
(1 0 0)
(0 -1 -0)
(1 0 0)
(0 -1 0)
(1 0 -0)
(0 1 0)
(1 0 0)
(0 -1 0)
(1 0 0)
(0 -1 0)
(1 0 -0)
(0 1 0)
(1 0 0)
(0 -1 0)
(1 0 -0)
(0 1 0)
(1 0 0)
(0 -1 0)
(1 0 0)
(0 -1 0)
(0 1 0)
(-1 0 0)
(0 0 -1)
(0 1 0)
(-1 0 -0)
(0 1 0)
(-1 -0 -0)
(0 1 0)
(-1 0 -0)
(0 1 0)
(-1 -0 -0)
(0 1 0)
(-1 0 -0)
(0 1 0)
(-1 0 -0)
(0 1 0)
(-1 0 0)
(0 1 0)
(-1 0 -0)
(0 1 0)
(-1 0 0)
(0 1 0)
(-1 0 -0)
(0 1 0)
(-1 0 -0)
(0 1 0)
(-1 -0 -0)
(0 1 0)
(0 0 1)
(-1 0 -0)
(0 1 0)
(0 0 -1)
(0 1 0)
(0 0 -1)
(0 1 0)
(0 0 -1)
(0 1 0)
(0 0 -1)
(0 1 0)
(0 0 -1)
(0 1 0)
(0 0 -1)
(0 1 0)
(0 0 -1)
(0 1 0)
(0 0 -1)
(0 1 0)
(-0 0 -1)
(0 1 0)
(0 0 -1)
(0 1 0)
(0 0 -1)
(0 1 0)
(0 0 -1)
(0 1 0)
(0 0 -1)
(-0 1 0)
(0 0 1)
(-0 1 0)
(0 0 1)
(-0 1 0)
(0 0 1)
(-0 1 0)
(-0 0 1)
(-0 1 0)
(0 0 1)
(-0 1 0)
(-0 0 1)
(-0 1 0)
(0 0 1)
(-0 1 0)
(0 0 1)
(-0 1 0)
(0 0 1)
(-0 1 0)
(0 0 1)
(-0 1 0)
(0 0 1)
(-0 1 0)
(0 0 1)
(-0 1 0)
(0 0 1)
(-0 1 0)
(0 0 1)
(0 1 0)
(-1 0 -0)
(0 1 0)
(-1 0 -0)
(0 1 0)
(0 0 -1)
(0 1 0)
(0 0 -1)
(0 1 0)
(0 0 -1)
(0 1 0)
(0 0 1)
(-0 1 0)
(0 0 1)
(0 0 1)
(0 0 1)
(-0 -1 0)
(0 0 1)
(-1 0 0)
(0 -1 0)
(0 0 1)
(-0 -1 0)
(0 0 1)
(-0 -1 0)
(0 0 1)
(-0 -1 0)
(0 0 1)
(-0 -1 0)
(0 0 1)
(-0 -1 0)
(0 0 1)
(-0 -1 0)
(0 0 1)
(-0 -1 0)
(0 0 1)
(-0 -1 0)
(0 0 1)
(-0 -1 0)
(0 0 1)
(-0 -1 0)
(0 0 1)
(-0 -1 0)
(0 0 1)
(-0 -1 0)
(0 0 1)
(-0 -1 0)
(0 0 1)
(-0 -1 0)
(0 0 1)
(-0 -1 0)
(-1 0 0)
(0 -1 0)
(-1 0 0)
(0 -1 0)
(0 0 -1)
(-1 0 0)
(0 -1 0)
(-1 0 0)
(0 -1 0)
(-1 0 0)
(0 -1 0)
(-1 0 0)
(0 -1 0)
(-1 0 0)
(0 -1 0)
(-1 0 0)
(0 -1 0)
(-1 0 0)
(0 -1 0)
(-1 0 0)
(0 -1 0)
(-1 0 0)
(0 -1 0)
(-1 0 0)
(0 -1 0)
(-1 0 0)
(0 -1 0)
(-1 0 0)
(0 -1 0)
(-1 0 0)
(0 -1 0)
(0 0 -1)
(0 -1 0)
(0 0 -1)
(0 -1 0)
(0 0 -1)
(0 -1 0)
(0 0 -1)
(0 -1 0)
(0 0 -1)
(0 -1 0)
(0 0 -1)
(0 -1 0)
(0 0 -1)
(0 -1 0)
(0 -0 -1)
(0 -1 0)
(0 -0 -1)
(0 -1 0)
(0 0 -1)
(0 -1 0)
(0 -0 -1)
(0 -1 0)
(0 0 -1)
(0 -1 0)
(0 0 -1)
(0 -1 0)
(0 0 -1)
(0 -1 -0)
(0 0 -1)
(0 -1 0)
(0 0 -1)
(0 -1 0)
(0 0 -1)
)

// normal volume types

532
(
0
0
0
0
0
0
0
0
0
0
0
0
0
0
0
0
0
0
0
0
0
0
0
0
0
0
0
0
0
0
0
0
0
0
0
0
0
0
0
0
0
0
0
0
0
0
0
0
0
0
0
0
0
0
0
0
0
0
0
0
0
0
0
0
0
0
0
0
0
0
0
0
0
0
0
0
0
0
0
0
0
0
0
0
0
0
0
0
0
0
0
0
0
0
0
0
0
0
0
0
0
0
0
0
0
0
0
0
0
0
0
0
0
0
0
0
0
0
0
0
0
0
0
0
0
0
0
0
0
0
0
0
0
0
0
0
0
0
0
0
0
0
0
0
0
0
0
0
0
0
0
0
0
0
0
0
0
0
0
0
0
0
0
0
0
0
0
0
0
0
0
0
0
0
0
0
0
0
0
0
0
0
0
0
0
0
0
0
0
0
0
0
0
0
0
0
0
0
0
0
0
0
0
0
0
0
0
0
0
0
0
0
0
0
0
0
0
0
0
0
0
0
0
0
0
0
0
0
0
0
0
0
0
0
0
0
0
0
0
0
0
0
0
0
0
0
0
0
0
0
0
0
0
0
0
0
0
0
0
0
0
0
0
0
0
0
0
0
0
0
0
0
0
0
0
0
0
0
0
0
0
0
0
0
0
0
0
0
0
0
0
0
0
0
0
0
0
0
0
0
0
0
0
0
0
0
0
0
0
0
0
0
0
0
0
0
0
0
0
0
0
0
0
0
0
0
0
0
0
0
0
0
0
0
0
0
0
0
0
0
0
0
0
0
0
0
0
0
0
0
0
0
0
0
0
0
0
0
0
0
0
0
0
0
0
0
0
0
0
0
0
0
0
0
0
0
0
0
0
0
0
0
0
0
0
0
0
0
0
0
0
0
0
0
0
0
0
0
0
0
0
0
0
0
0
0
0
0
0
0
0
0
0
0
0
0
0
0
0
0
0
0
0
0
0
0
0
0
0
0
0
0
0
0
0
0
0
0
0
0
0
0
0
0
0
0
0
0
0
0
0
0
0
0
0
0
0
0
0
0
0
0
0
0
0
0
0
0
0
0
0
0
0
0
0
0
0
0
0
0
0
0
0
0
0
0
0
0
0
0
0
0
0
0
0
0
0
0
0
0
0
0
0
0
0
0
0
0
0
0
0
0
0
0
0
0
0
0
0
0
0
0
0
0
0
0
0
0
0
0
0
0
)

// normalDirections

282
(
2(1 -1)
2(1 -1)
2(1 -1)
2(1 -1)
2(1 -1)
2(1 -1)
2(1 -1)
2(1 -1)
2(1 -1)
2(1 -1)
2(1 -1)
2(1 -1)
2(1 -1)
2(1 -1)
2(1 -1)
2(1 -1)
2(1 -1)
2(1 -1)
2(1 -1)
2(1 -1)
2(1 -1)
2(1 -1)
2(1 -1)
2(1 -1)
2(1 -1)
2(1 -1)
2(1 -1)
2(1 -1)
2(1 -1)
2(1 -1)
2(1 -1)
2(1 -1)
2(1 -1)
2(1 -1)
2(1 -1)
2(1 -1)
2(1 -1)
2(1 -1)
2(1 -1)
2(1 -1)
2(1 -1)
2(1 -1)
2(1 -1)
2(1 -1)
2(1 -1)
2(1 -1)
2(1 -1)
2(1 -1)
2(1 -1)
2(1 -1)
2(1 -1)
2(1 -1)
2(1 -1)
2(1 -1)
2(1 -1)
2(1 -1)
2(1 -1)
2(1 -1)
2(1 -1)
2(1 -1)
2(1 -1)
2(1 -1)
2(1 -1)
2(1 -1)
2(1 -1)
2(1 -1)
2(1 -1)
2(1 -1)
2(1 -1)
2(1 -1)
2(1 -1)
2(1 -1)
2(1 -1)
2(1 -1)
2(1 -1)
2(1 -1)
2(1 -1)
2(1 -1)
2(1 -1)
2(1 -1)
2(1 -1)
2(1 -1)
2(1 -1)
2(1 -1)
2(1 -1)
2(1 -1)
2(1 -1)
2(1 -1)
2(1 -1)
2(1 -1)
2(1 -1)
2(1 -1)
2(1 -1)
2(1 -1)
2(1 -1)
2(1 -1)
2(1 -1)
2(1 -1)
2(1 -1)
2(1 -1)
2(1 -1)
2(1 -1)
2(1 -1)
2(1 -1)
2(1 -1)
2(1 -1)
2(1 -1)
2(1 -1)
2(1 -1)
2(1 -1)
2(1 -1)
2(1 -1)
2(1 -1)
2(1 -1)
2(1 -1)
2(1 -1)
2(1 -1)
2(1 -1)
2(1 -1)
2(1 -1)
2(1 -1)
2(1 -1)
2(1 -1)
2(1 -1)
2(1 -1)
2(1 -1)
2(1 -1)
2(1 -1)
2(1 -1)
2(1 -1)
2(1 -1)
2(1 -1)
2(1 -1)
2(1 -1)
2(1 -1)
2(1 -1)
2(1 -1)
2(1 -1)
2(1 -1)
2(1 -1)
2(1 -1)
2(1 -1)
2(1 -1)
2(1 -1)
2(1 -1)
2(1 -1)
2(1 -1)
2(1 -1)
2(1 -1)
2(1 -1)
2(1 -1)
2(1 -1)
2(1 -1)
2(1 -1)
2(1 -1)
2(1 -1)
2(1 -1)
2(1 -1)
2(1 -1)
2(1 -1)
2(1 -1)
2(1 -1)
2(1 -1)
2(1 -1)
2(1 -1)
2(1 -1)
2(1 -1)
2(1 -1)
2(1 -1)
2(1 -1)
2(1 -1)
2(1 -1)
2(1 -1)
2(1 -1)
2(1 -1)
2(1 -1)
2(1 -1)
2(1 -1)
2(1 -1)
2(1 -1)
2(1 -1)
2(1 -1)
2(1 -1)
2(1 -1)
2(1 -1)
2(1 -1)
2(1 -1)
2(1 -1)
2(1 -1)
2(1 -1)
2(1 -1)
2(1 -1)
2(1 -1)
2(1 -1)
2(1 -1)
2(1 -1)
2(1 -1)
2(1 -1)
2(1 -1)
2(1 -1)
2(1 -1)
2(1 -1)
2(1 -1)
2(1 -1)
2(1 -1)
2(1 -1)
2(1 -1)
2(1 -1)
2(1 -1)
2(1 -1)
2(1 -1)
2(1 -1)
2(1 -1)
2(1 -1)
2(1 -1)
2(1 -1)
2(1 -1)
2(1 -1)
2(1 -1)
2(1 -1)
2(1 -1)
2(1 -1)
2(1 -1)
2(1 -1)
2(1 -1)
2(1 -1)
2(1 -1)
2(1 -1)
2(1 -1)
2(1 -1)
2(1 -1)
2(1 -1)
2(1 -1)
2(1 -1)
2(1 -1)
2(1 -1)
2(1 -1)
2(1 -1)
2(1 -1)
2(1 -1)
2(1 -1)
2(1 -1)
2(1 -1)
2(1 -1)
2(1 -1)
2(1 -1)
2(1 -1)
2(1 -1)
2(1 -1)
2(1 -1)
2(1 -1)
2(1 -1)
2(1 -1)
2(1 -1)
2(1 -1)
2(1 -1)
2(1 -1)
2(1 -1)
2(1 -1)
2(1 -1)
2(1 -1)
2(1 -1)
2(1 -1)
2(1 -1)
2(1 -1)
2(1 -1)
2(1 -1)
2(1 -1)
2(1 -1)
2(1 -1)
2(1 -1)
2(1 -1)
2(1 -1)
2(1 -1)
2(1 -1)
2(1 -1)
2(1 -1)
2(1 -1)
2(1 -1)
2(1 -1)
2(1 -1)
2(1 -1)
)

// edgeNormals

282
(
2(0 1)
2(0 2)
2(3 4)
2(5 6)
2(7 8)
2(9 10)
2(11 12)
2(13 14)
2(15 16)
2(17 18)
2(19 20)
2(21 22)
2(23 24)
2(25 26)
2(25 27)
2(28 29)
2(28 30)
2(31 32)
2(33 34)
2(35 36)
2(37 38)
2(39 40)
2(41 42)
2(43 44)
2(45 46)
2(47 48)
2(49 50)
2(51 52)
2(53 54)
2(55 56)
2(55 57)
2(58 59)
2(60 61)
2(62 63)
2(64 65)
2(66 67)
2(68 69)
2(70 71)
2(72 73)
2(74 75)
2(76 77)
2(78 79)
2(80 81)
2(82 83)
2(84 85)
2(86 87)
2(88 89)
2(90 91)
2(92 93)
2(94 95)
2(96 97)
2(98 99)
2(100 101)
2(102 103)
2(104 105)
2(106 107)
2(108 109)
2(110 111)
2(112 113)
2(114 115)
2(116 117)
2(118 119)
2(120 121)
2(122 123)
2(124 125)
2(126 127)
2(128 129)
2(130 131)
2(132 133)
2(134 135)
2(134 136)
2(137 138)
2(139 140)
2(141 142)
2(143 144)
2(145 146)
2(147 148)
2(149 150)
2(151 152)
2(153 154)
2(155 156)
2(157 158)
2(159 160)
2(161 162)
2(161 163)
2(164 165)
2(164 166)
2(167 168)
2(169 170)
2(171 172)
2(173 174)
2(175 176)
2(177 178)
2(179 180)
2(181 182)
2(183 184)
2(185 186)
2(187 188)
2(189 190)
2(189 191)
2(192 193)
2(194 195)
2(196 197)
2(198 199)
2(200 201)
2(202 203)
2(204 205)
2(206 207)
2(208 209)
2(210 211)
2(212 213)
2(214 215)
2(216 217)
2(218 219)
2(220 221)
2(222 223)
2(224 225)
2(226 227)
2(228 229)
2(230 231)
2(232 233)
2(234 235)
2(236 237)
2(238 239)
2(240 241)
2(242 243)
2(244 245)
2(246 247)
2(248 249)
2(250 251)
2(252 253)
2(254 255)
2(256 257)
2(258 259)
2(260 261)
2(262 263)
2(264 265)
2(266 267)
2(190 191)
2(56 57)
2(165 166)
2(29 30)
2(268 269)
2(270 271)
2(270 272)
2(273 274)
2(275 276)
2(277 278)
2(277 279)
2(280 281)
2(282 283)
2(284 285)
2(286 287)
2(288 289)
2(290 291)
2(292 293)
2(294 295)
2(296 297)
2(298 299)
2(300 301)
2(302 303)
2(304 305)
2(306 307)
2(308 309)
2(310 311)
2(312 313)
2(314 315)
2(316 317)
2(318 319)
2(320 321)
2(322 323)
2(324 325)
2(326 327)
2(328 329)
2(330 331)
2(332 333)
2(334 335)
2(334 336)
2(337 338)
2(339 340)
2(341 342)
2(343 344)
2(345 346)
2(347 348)
2(349 350)
2(351 352)
2(353 354)
2(355 356)
2(357 358)
2(359 360)
2(361 362)
2(361 363)
2(278 279)
2(271 272)
2(364 365)
2(366 367)
2(368 369)
2(370 371)
2(372 373)
2(374 375)
2(376 377)
2(378 379)
2(380 381)
2(382 383)
2(384 385)
2(386 387)
2(388 389)
2(390 391)
2(392 393)
2(394 395)
2(396 397)
2(398 399)
2(400 401)
2(402 403)
2(404 405)
2(406 407)
2(408 409)
2(410 411)
2(412 413)
2(414 415)
2(416 417)
2(418 419)
2(420 421)
2(422 423)
2(424 425)
2(426 427)
2(428 429)
2(430 431)
2(432 276)
2(433 434)
2(435 436)
2(435 437)
2(438 439)
2(440 441)
2(442 443)
2(444 445)
2(446 447)
2(448 449)
2(450 451)
2(452 453)
2(454 455)
2(456 457)
2(458 459)
2(460 461)
2(462 463)
2(464 465)
2(466 467)
2(468 469)
2(436 437)
2(470 471)
2(470 472)
2(473 474)
2(475 476)
2(477 478)
2(479 480)
2(481 482)
2(483 484)
2(485 486)
2(487 488)
2(489 490)
2(491 492)
2(493 494)
2(495 496)
2(497 498)
2(283 499)
2(471 472)
2(500 501)
2(502 503)
2(504 505)
2(506 507)
2(508 509)
2(510 511)
2(512 513)
2(514 515)
2(516 517)
2(518 519)
2(520 521)
2(522 523)
2(524 525)
2(526 527)
2(528 529)
2(530 531)
)

// featurePointNormals

16
(
3(0 1 2)
3(25 26 27)
3(28 29 30)
3(55 56 57)
3(134 135 136)
3(161 162 163)
3(164 165 166)
3(189 190 191)
3(270 271 272)
3(270 272 276)
3(277 278 279)
3(277 279 283)
3(334 335 336)
3(361 362 363)
3(435 436 437)
3(470 471 472)
)

// featurePointEdges

16
(
3(0 140 1)
3(13 138 14)
3(15 141 16)
3(29 139 30)
3(69 141 70)
3(83 139 84)
3(85 140 86)
3(98 138 99)
3(143 193 144)
3(146 228 144)
3(147 192 148)
3(150 264 148)
3(176 250 177)
3(190 230 191)
3(230 248 231)
3(249 265 250)
)

// regionEdges
0()


// ************************************************************************* //
